/*---------------------------------------------------------------------------*\
| =========                 |                                                 |
| \\      /  F ield         | OpenFOAM: The Open Source CFD Toolbox           |
|  \\    /   O peration     | Version:  2206                                  |
|   \\  /    A nd           | Website:  www.openfoam.com                      |
|    \\/     M anipulation  |                                                 |
\*---------------------------------------------------------------------------*/
Build  : _76d719d1e6-20220624 OPENFOAM=2206 version=v2206
Arch   : "LSB;label=32;scalar=64"
Exec   : compressibleInterFoam
Date   : Oct 28 2022
Time   : 19:51:02
Host   : henning-Yoga-Slim-7-Pro-14IAP7
PID    : 62456
I/O    : uncollated
Case   : /home/henning/libsAndApps/pybFoam/testsuite/test-postProcess
nProcs : 1
trapFpe: Floating point exception trapping enabled (FOAM_SIGFPE).
fileModificationChecking : Monitoring run-time modified files using timeStampMaster (fileModificationSkew 5, maxFileModificationPolls 20)
allowSystemOperations : Allowing user-supplied system call operations

// * * * * * * * * * * * * * * * * * * * * * * * * * * * * * * * * * * * * * //
Create time

Create mesh for time = 0


PIMPLE: Operating solver in PISO mode

Reading field p_rgh

Reading field U

Reading/calculating face flux field phi

Constructing twoPhaseMixtureThermo

Selecting surfaceTensionModel liquidProperties
Selecting thermodynamics package 
{
    type            heRhoThermo;
    mixture         pureMixture;
    properties      liquid;
    energy          sensibleInternalEnergy;
}

Selecting thermodynamics package 
{
    type            heRhoThermo;
    mixture         pureMixture;
    transport       const;
    thermo          hConst;
    equationOfState perfectGas;
    specie          specie;
    energy          sensibleInternalEnergy;
}

Reading thermophysical properties


Reading g

Reading hRef
Calculating field g.h

Selecting turbulence model type laminar
Selecting laminar stress model Stokes
Creating field kinetic energy K

No MRF models present

No finite volume options present
Courant Number mean: 0 max: 0

Starting time loop

Starting Python Interpreter
Sampled surface:
    freeSurface -> raw
        isoSurface: freeSurface : isoMethod:cell regularise:full snap:1 field:alpha.water value:(0.5)

Sampled set:
    centreLine -> raw

forces forces:
    Not including porosity effects

Courant Number mean: 0 max: 0
Interface Courant Number mean: 0 max: 0
deltaT = 0.001190476190476191
Time = 0.00119048

PIMPLE: iteration 1
MULES: Solving for alpha.water
Phase-1 volume fraction = 0.1359135956571528  Min(alpha.water) = 0  Max(alpha.water) = 1
MULES: Solving for alpha.water
Phase-1 volume fraction = 0.1359135956571528  Min(alpha.water) = 0  Max(alpha.water) = 1
smoothSolver:  Solving for Ux, Initial residual = 1, Final residual = 5.748763040101631e-07, No Iterations 2
smoothSolver:  Solving for Uy, Initial residual = 1, Final residual = 4.844844994119543e-07, No Iterations 2
smoothSolver:  Solving for T, Initial residual = 9.238001883641455e-08, Final residual = 1.420104357837832e-14, No Iterations 1
GAMG:  Solving for p_rgh, Initial residual = 0.9999999999994034, Final residual = 0.006535764796406471, No Iterations 1
GAMG:  Solving for p_rgh, Initial residual = 0.003310188233554693, Final residual = 2.147266230727168e-05, No Iterations 6
GAMG:  Solving for p_rgh, Initial residual = 2.136094612684295e-05, Final residual = 2.034261645091368e-07, No Iterations 11
GAMG:  Solving for p_rgh, Initial residual = 1.95748800896676e-07, Final residual = 8.657546627043915e-08, No Iterations 2
GAMGPCG:  Solving for p_rgh, Initial residual = 8.652296401826149e-08, Final residual = 8.652296401826149e-08, No Iterations 0
ExecutionTime = 1.57 s  ClockTime = 0 s

forces forces write:
    Sum of forces
        Total    : (0.000444446895067767 -854.3125957855899 -2.994555476178195e-23)
        Pressure : (0.0004338603715474676 -854.3125935414843 0)
        Viscous  : (1.058652352029942e-05 -2.244105691476934e-06 -2.994555476178195e-23)
    Sum of moments
        Total    : (-164.6260372078832 -8.564491667985038e-05 2253.672992380768)
        Pressure : (-164.626036775444 -8.360489359748868e-05 2253.67298607248)
        Viscous  : (-4.32439166747605e-07 -2.040023082361699e-06 6.308287788411715e-06)
    writing force and moment files.

Courant Number mean: 0.001150114765373482 max: 0.1080462828563901
Interface Courant Number mean: 0 max: 0
deltaT = 0.001435574229691877
Time = 0.00262605

PIMPLE: iteration 1
MULES: Solving for alpha.water
Phase-1 volume fraction = 0.1359135956745653  Min(alpha.water) = 0  Max(alpha.water) = 1
MULES: Solving for alpha.water
Phase-1 volume fraction = 0.135913594774269  Min(alpha.water) = -7.843715145821019e-24  Max(alpha.water) = 1
smoothSolver:  Solving for Ux, Initial residual = 0.477304552959584, Final residual = 4.758884494370228e-08, No Iterations 3
smoothSolver:  Solving for Uy, Initial residual = 0.4040055087478405, Final residual = 2.066067327038795e-08, No Iterations 3
smoothSolver:  Solving for T, Initial residual = 0.00022401635157425, Final residual = 8.502964055814948e-09, No Iterations 1
GAMG:  Solving for p_rgh, Initial residual = 0.007559167465201822, Final residual = 5.429705387482761e-05, No Iterations 8
GAMG:  Solving for p_rgh, Initial residual = 0.0002499282521529337, Final residual = 2.048569614553245e-06, No Iterations 8
GAMG:  Solving for p_rgh, Initial residual = 4.158576542791655e-06, Final residual = 9.285660623017932e-08, No Iterations 8
GAMG:  Solving for p_rgh, Initial residual = 2.229197102240377e-07, Final residual = 7.486260304309659e-08, No Iterations 1
GAMGPCG:  Solving for p_rgh, Initial residual = 8.260268745576726e-08, Final residual = 8.260268745576726e-08, No Iterations 0
ExecutionTime = 1.76 s  ClockTime = 0 s

forces forces write:
    Sum of forces
        Total    : (-0.027842473137002 -852.9545943967623 -7.715910888315336e-24)
        Pressure : (-0.02785346740851757 -852.954590394701 0)
        Viscous  : (1.099427151556953e-05 -4.002061315245353e-06 -7.715910888315336e-24)
    Sum of moments
        Total    : (-164.3643503402561 0.005365244573499004 2250.034571645372)
        Pressure : (-164.3643495690588 0.005367363169620054 2250.034560398695)
        Viscous  : (-7.711972154477795e-07 -2.118596121050249e-06 1.124667622016896e-05)
    writing force and moment files.

Courant Number mean: 0.02713947146446332 max: 0.2316249802644719
Interface Courant Number mean: 7.266887497881641e-05 max: 0.1038762597692547
deltaT = 0.001691926770708283
Time = 0.00431798

PIMPLE: iteration 1
MULES: Solving for alpha.water
Phase-1 volume fraction = 0.1359144266058198  Min(alpha.water) = -7.266812720711727e-24  Max(alpha.water) = 1
MULES: Solving for alpha.water
Phase-1 volume fraction = 0.1359135822577389  Min(alpha.water) = -6.731699448618983e-24  Max(alpha.water) = 1
smoothSolver:  Solving for Ux, Initial residual = 0.01959591460291514, Final residual = 3.252616841990117e-07, No Iterations 4
smoothSolver:  Solving for Uy, Initial residual = 0.09184942402336958, Final residual = 2.663038059952605e-07, No Iterations 4
smoothSolver:  Solving for T, Initial residual = 4.594365485943258e-05, Final residual = 1.091492706940401e-09, No Iterations 1
GAMG:  Solving for p_rgh, Initial residual = 0.008293954890365905, Final residual = 5.650368771209404e-05, No Iterations 9
GAMG:  Solving for p_rgh, Initial residual = 0.0006186504154317848, Final residual = 4.372014126247221e-06, No Iterations 5
GAMG:  Solving for p_rgh, Initial residual = 1.690036361021821e-05, Final residual = 1.455861597520619e-07, No Iterations 10
GAMG:  Solving for p_rgh, Initial residual = 1.120763919726111e-06, Final residual = 7.8543282994977e-08, No Iterations 2
GAMGPCG:  Solving for p_rgh, Initial residual = 1.591337040076358e-07, Final residual = 2.533265437450521e-08, No Iterations 1
ExecutionTime = 1.77 s  ClockTime = 0 s

forces forces write:
    Sum of forces
        Total    : (0.006352640678133417 -852.3373882222952 -6.211497687483719e-23)
        Pressure : (0.006320984542641739 -852.3373808587601 0)
        Viscous  : (3.165613549167824e-05 -7.363535138087376e-06 -6.211497687483719e-23)
    Sum of moments
        Total    : (-164.2454147104363 -0.001224153858675432 2248.491009598715)
        Pressure : (-164.2454132914831 -0.001218053721366186 2248.490988886801)
        Viscous  : (-1.418953221109438e-06 -6.100137309246404e-06 2.071191461811656e-05)
    writing force and moment files.

Courant Number mean: 0.02553908597087065 max: 0.1904047882079479
Interface Courant Number mean: 4.385550551671405e-05 max: 0.05904842733150587
deltaT = 0.001986174904744507
Time = 0.00630415

PIMPLE: iteration 1
MULES: Solving for alpha.water
Phase-1 volume fraction = 0.1359145739342306  Min(alpha.water) = -6.359921661497142e-24  Max(alpha.water) = 1
MULES: Solving for alpha.water
Phase-1 volume fraction = 0.1359145552718433  Min(alpha.water) = -6.008676389834761e-24  Max(alpha.water) = 1
smoothSolver:  Solving for Ux, Initial residual = 0.02478928863459668, Final residual = 5.519378640174352e-07, No Iterations 3
smoothSolver:  Solving for Uy, Initial residual = 0.1454675688507215, Final residual = 5.897520660585941e-07, No Iterations 3
smoothSolver:  Solving for T, Initial residual = 5.443606847504947e-05, Final residual = 4.96493331486021e-10, No Iterations 1
GAMG:  Solving for p_rgh, Initial residual = 0.005573015101894105, Final residual = 3.932528386209559e-05, No Iterations 7
GAMG:  Solving for p_rgh, Initial residual = 0.0001436083499297979, Final residual = 1.149849293679891e-06, No Iterations 7
GAMG:  Solving for p_rgh, Initial residual = 3.728503698989987e-06, Final residual = 8.878158386452136e-08, No Iterations 6
GAMG:  Solving for p_rgh, Initial residual = 3.088057715523008e-07, Final residual = 7.506986502830498e-08, No Iterations 2
GAMGPCG:  Solving for p_rgh, Initial residual = 8.348521194684472e-08, Final residual = 8.348521194684472e-08, No Iterations 0
ExecutionTime = 1.78 s  ClockTime = 0 s

forces forces write:
    Sum of forces
        Total    : (0.009367447663355098 -851.5892047178056 -1.340930922562183e-22)
        Pressure : (0.009313611697503887 -851.589195200096 0)
        Viscous  : (5.383596585121052e-05 -9.517709616069389e-06 -1.340930922562183e-22)
    Sum of moments
        Total    : (-164.1012397491212 -0.001805107164729897 2246.51811189805)
        Pressure : (-164.1012379150586 -0.001794732974110369 2246.51808507165)
        Viscous  : (-1.834062643016571e-06 -1.037419061952827e-05 2.682640035953829e-05)
    writing force and moment files.

Courant Number mean: 0.01386608469017043 max: 0.084665068143586
Interface Courant Number mean: 0.0001828202770908135 max: 0.07063778579552459
deltaT = 0.002427547105798841
Time = 0.0087317

PIMPLE: iteration 1
MULES: Solving for alpha.water
Phase-1 volume fraction = 0.1359159060830253  Min(alpha.water) = -1.049323019684187e-19  Max(alpha.water) = 1
MULES: Solving for alpha.water
Phase-1 volume fraction = 0.1359161171707235  Min(alpha.water) = -6.737795418565028e-20  Max(alpha.water) = 1
smoothSolver:  Solving for Ux, Initial residual = 0.05199643979506689, Final residual = 2.643766842906099e-07, No Iterations 3
smoothSolver:  Solving for Uy, Initial residual = 0.3522640802996375, Final residual = 9.549945593242563e-07, No Iterations 3
smoothSolver:  Solving for T, Initial residual = 5.311439775687422e-05, Final residual = 3.700841942751537e-10, No Iterations 1
GAMG:  Solving for p_rgh, Initial residual = 0.008264681363851374, Final residual = 6.657436839042307e-05, No Iterations 5
GAMG:  Solving for p_rgh, Initial residual = 0.0001366331886132593, Final residual = 1.201128137529608e-06, No Iterations 11
GAMG:  Solving for p_rgh, Initial residual = 2.608173888003744e-06, Final residual = 7.683551012434412e-08, No Iterations 5
GAMG:  Solving for p_rgh, Initial residual = 1.672859200185285e-07, Final residual = 8.781385607876133e-08, No Iterations 1
GAMGPCG:  Solving for p_rgh, Initial residual = 8.93934846640577e-08, Final residual = 8.93934846640577e-08, No Iterations 0
ExecutionTime = 1.78 s  ClockTime = 0 s

forces forces write:
    Sum of forces
        Total    : (0.002297858366753492 -850.8816552724303 -1.949577898490847e-22)
        Pressure : (0.002220714444824523 -850.8816428125665 0)
        Viscous  : (7.714392192896945e-05 -1.245986384758791e-05 -1.949577898490847e-22)
    Sum of moments
        Total    : (-163.9648949709973 -0.000442797307270671 2244.644179553299)
        Pressure : (-163.9648925699815 -0.0004279316735149585 2244.644144423325)
        Viscous  : (-2.401015763430192e-06 -1.486563375571241e-05 3.512997406001201e-05)
    writing force and moment files.

Courant Number mean: 0.01244753005763239 max: 0.1140303740638283
Interface Courant Number mean: 0.0003417949280938542 max: 0.1140303740638283
deltaT = 0.002947735771327165
Time = 0.0116794

PIMPLE: iteration 1
MULES: Solving for alpha.water
Phase-1 volume fraction = 0.1359180424309027  Min(alpha.water) = -3.234688315897046e-21  Max(alpha.water) = 1
MULES: Solving for alpha.water
Phase-1 volume fraction = 0.1359188285925336  Min(alpha.water) = -1.465840691115013e-22  Max(alpha.water) = 1
smoothSolver:  Solving for Ux, Initial residual = 0.07026228750495908, Final residual = 4.184420787526269e-07, No Iterations 3
smoothSolver:  Solving for Uy, Initial residual = 0.1953627710053509, Final residual = 2.344408153830281e-08, No Iterations 4
smoothSolver:  Solving for T, Initial residual = 5.456024933881513e-05, Final residual = 3.945846531141313e-10, No Iterations 1
GAMG:  Solving for p_rgh, Initial residual = 0.01323250122650682, Final residual = 7.246231839047682e-05, No Iterations 2
GAMG:  Solving for p_rgh, Initial residual = 0.0001460100848839865, Final residual = 1.088379867662168e-06, No Iterations 6
GAMG:  Solving for p_rgh, Initial residual = 2.743286701356548e-06, Final residual = 7.240613539933042e-08, No Iterations 7
GAMG:  Solving for p_rgh, Initial residual = 9.437836056316704e-08, Final residual = 9.437836056316704e-08, No Iterations 0
GAMGPCG:  Solving for p_rgh, Initial residual = 9.490231477283782e-08, Final residual = 9.490231477283782e-08, No Iterations 0
ExecutionTime = 1.79 s  ClockTime = 0 s

forces forces write:
    Sum of forces
        Total    : (0.002060373731298967 -850.4572871350076 -2.654101441004525e-22)
        Pressure : (0.001954628545750126 -850.4572710359425 0)
        Viscous  : (0.0001057451855488415 -1.609906511954633e-05 -2.654101441004525e-22)
    Sum of moments
        Total    : (-163.883119230916 -0.000397034018024087 2243.530673695878)
        Pressure : (-163.8831161286261 -0.0003766569207688253 2243.530628308477)
        Viscous  : (-3.102289848536578e-06 -2.037709725526176e-05 4.538740068107745e-05)
    writing force and moment files.

Courant Number mean: 0.01504778244714836 max: 0.1938360048060987
Interface Courant Number mean: 0.0006455992702730913 max: 0.1938360048060987
deltaT = 0.003483687729750285
Time = 0.0151631

PIMPLE: iteration 1
MULES: Solving for alpha.water
Phase-1 volume fraction = 0.1359214222741753  Min(alpha.water) = -1.425793040354019e-22  Max(alpha.water) = 1
MULES: Solving for alpha.water
Phase-1 volume fraction = 0.1359230082447266  Min(alpha.water) = -5.151958863533332e-24  Max(alpha.water) = 1
smoothSolver:  Solving for Ux, Initial residual = 0.09807487983920718, Final residual = 6.997038492333244e-08, No Iterations 4
smoothSolver:  Solving for Uy, Initial residual = 0.1479478280766149, Final residual = 1.012265911768341e-07, No Iterations 4
smoothSolver:  Solving for T, Initial residual = 5.346227901167518e-05, Final residual = 8.817818982180119e-10, No Iterations 1
GAMG:  Solving for p_rgh, Initial residual = 0.02112798753895439, Final residual = 9.262059909764892e-05, No Iterations 2
GAMG:  Solving for p_rgh, Initial residual = 0.0002875536548991973, Final residual = 2.630254482815773e-06, No Iterations 6
GAMG:  Solving for p_rgh, Initial residual = 8.342813110988558e-06, Final residual = 8.783322450833747e-08, No Iterations 9
GAMG:  Solving for p_rgh, Initial residual = 3.177690519581412e-07, Final residual = 5.758462351657096e-08, No Iterations 1
GAMGPCG:  Solving for p_rgh, Initial residual = 6.995957005393313e-08, Final residual = 6.995957005393313e-08, No Iterations 0
ExecutionTime = 1.8 s  ClockTime = 0 s

forces forces write:
    Sum of forces
        Total    : (0.001043435830606359 -850.1616441065883 -3.402036432324548e-22)
        Pressure : (0.0009036644364126545 -850.161623335552 0)
        Viscous  : (0.0001397713941937044 -2.077103624814933e-05 -3.402036432324548e-22)
    Sum of moments
        Total    : (-163.8261488193396 -0.0002010700845576679 2242.757584267397)
        Pressure : (-163.8261448167609 -0.0001741361368965411 2242.75752573586)
        Viscous  : (-4.002578685018374e-06 -2.693394766112685e-05 5.85315371026437e-05)
    writing force and moment files.

Courant Number mean: 0.02383220765026551 max: 0.2993906134042441
Interface Courant Number mean: 0.001130551356790005 max: 0.29247983954554
deltaT = 0.004354609662187856
Time = 0.0195177

PIMPLE: iteration 1
MULES: Solving for alpha.water
Phase-1 volume fraction = 0.1359268147313708  Min(alpha.water) = -4.786983362707437e-20  Max(alpha.water) = 1
MULES: Solving for alpha.water
Phase-1 volume fraction = 0.1359298321019372  Min(alpha.water) = -1.68315154435901e-19  Max(alpha.water) = 1
smoothSolver:  Solving for Ux, Initial residual = 0.1165974475701624, Final residual = 5.098620975471761e-07, No Iterations 4
smoothSolver:  Solving for Uy, Initial residual = 0.1358169391361119, Final residual = 5.90740957602589e-07, No Iterations 4
smoothSolver:  Solving for T, Initial residual = 5.560556562158942e-05, Final residual = 2.25656953651272e-09, No Iterations 1
GAMG:  Solving for p_rgh, Initial residual = 0.03497528040451007, Final residual = 0.0001392926918874814, No Iterations 2
GAMG:  Solving for p_rgh, Initial residual = 0.0006751594367400838, Final residual = 5.908988029251202e-06, No Iterations 5
GAMG:  Solving for p_rgh, Initial residual = 2.419186327984242e-05, Final residual = 2.120223863829698e-07, No Iterations 8
GAMG:  Solving for p_rgh, Initial residual = 1.171877842698776e-06, Final residual = 6.269131928544427e-08, No Iterations 2
GAMGPCG:  Solving for p_rgh, Initial residual = 1.552944233158985e-07, Final residual = 2.283096559901176e-08, No Iterations 1
ExecutionTime = 1.81 s  ClockTime = 0 s

forces forces write:
    Sum of forces
        Total    : (0.000857017683662095 -849.9217887670439 -4.28856026397425e-22)
        Pressure : (0.000672924000708619 -849.9217612045007 0)
        Viscous  : (0.000184093682953476 -2.756254324964017e-05 -4.28856026397425e-22)
    Sum of moments
        Total    : (-163.7799286954094 -0.0001651473076433581 2242.135086099838)
        Pressure : (-163.7799233841073 -0.0001296724549382233 2242.135008508449)
        Viscous  : (-5.311302084205667e-06 -3.547485270513481e-05 7.759138919771512e-05)
    writing force and moment files.

Courant Number mean: 0.03963933869319704 max: 0.4480854139672198
Interface Courant Number mean: 0.001899935120666226 max: 0.4330378258626316
deltaT = 0.005080377939219166
Time = 0.0245981

PIMPLE: iteration 1
MULES: Solving for alpha.water
Phase-1 volume fraction = 0.1359343422194348  Min(alpha.water) = -2.356786472401942e-20  Max(alpha.water) = 1
MULES: Solving for alpha.water
Phase-1 volume fraction = 0.1359389556510238  Min(alpha.water) = -2.27819788436338e-19  Max(alpha.water) = 1
smoothSolver:  Solving for Ux, Initial residual = 0.1205298638115138, Final residual = 1.872032609876276e-07, No Iterations 5
smoothSolver:  Solving for Uy, Initial residual = 0.1239455953793678, Final residual = 1.754922548032134e-07, No Iterations 5
smoothSolver:  Solving for T, Initial residual = 6.098777860133611e-05, Final residual = 6.923000945223905e-09, No Iterations 1
GAMG:  Solving for p_rgh, Initial residual = 0.05436343261619664, Final residual = 0.0002988944064200128, No Iterations 2
GAMG:  Solving for p_rgh, Initial residual = 0.001498890538099379, Final residual = 1.424940217207799e-05, No Iterations 7
GAMG:  Solving for p_rgh, Initial residual = 6.556112577408326e-05, Final residual = 5.409308446661732e-07, No Iterations 7
GAMG:  Solving for p_rgh, Initial residual = 3.368013158508594e-06, Final residual = 9.741624153572448e-08, No Iterations 4
GAMGPCG:  Solving for p_rgh, Initial residual = 3.811566117341526e-07, Final residual = 8.172901473656916e-08, No Iterations 1
ExecutionTime = 1.82 s  ClockTime = 0 s

forces forces write:
    Sum of forces
        Total    : (0.0006257975827540653 -849.674867040992 -5.242833432813583e-22)
        Pressure : (0.0003875674233313475 -849.674832289701 0)
        Viscous  : (0.0002382301594227177 -3.475129093237665e-05 -5.242833432813583e-22)
    Sum of moments
        Total    : (-163.7323468787991 -0.000120591194194235 2241.49815183984)
        Pressure : (-163.7323401822253 -7.468424247347727e-05 2241.498054068187)
        Viscous  : (-6.696573762668986e-06 -4.590695172075769e-05 9.777165312566244e-05)
    writing force and moment files.

Courant Number mean: 0.05784377780067226 max: 0.5763024025457132
Interface Courant Number mean: 0.002794554430013106 max: 0.5581948891890951
deltaT = 0.006350472424023958
Time = 0.0309486

PIMPLE: iteration 1
MULES: Solving for alpha.water
Phase-1 volume fraction = 0.1359450448880365  Min(alpha.water) = -3.065569654337003e-19  Max(alpha.water) = 1
MULES: Solving for alpha.water
Phase-1 volume fraction = 0.1359520845989954  Min(alpha.water) = -7.557473834915584e-20  Max(alpha.water) = 1
smoothSolver:  Solving for Ux, Initial residual = 0.1251568872352641, Final residual = 1.701091034603952e-07, No Iterations 6
smoothSolver:  Solving for Uy, Initial residual = 0.1275700857379606, Final residual = 1.529470736565574e-07, No Iterations 6
smoothSolver:  Solving for T, Initial residual = 8.188187272507398e-05, Final residual = 1.266763798443365e-11, No Iterations 2
GAMG:  Solving for p_rgh, Initial residual = 0.090642032941813, Final residual = 0.0004601097677386704, No Iterations 2
GAMG:  Solving for p_rgh, Initial residual = 0.003249114716900685, Final residual = 3.179133109350059e-05, No Iterations 6
GAMG:  Solving for p_rgh, Initial residual = 0.000170009745943824, Final residual = 1.574752932723594e-06, No Iterations 6
GAMG:  Solving for p_rgh, Initial residual = 1.080912652828187e-05, Final residual = 9.279503880709351e-08, No Iterations 8
GAMGPCG:  Solving for p_rgh, Initial residual = 1.360608275769898e-06, Final residual = 2.348144237558405e-08, No Iterations 2
ExecutionTime = 1.83 s  ClockTime = 0 s

forces forces write:
    Sum of forces
        Total    : (0.0007398242557340635 -849.3247458923664 -6.377268409521658e-22)
        Pressure : (0.0004253754325862502 -849.324704039041 0)
        Viscous  : (0.0003144488231478133 -4.185332544031582e-05 -6.377268409521658e-22)
    Sum of moments
        Total    : (-163.664878533459 -0.000142564134079093 2240.595697059368)
        Pressure : (-163.6648704683232 -8.196984585850942e-05 2240.595579314949)
        Viscous  : (-8.065135812348858e-06 -6.059428822058359e-05 0.0001177444197661163)
    writing force and moment files.

Courant Number mean: 0.09078498295905342 max: 0.754806104953036
Interface Courant Number mean: 0.004396480684970695 max: 0.7352784567622878
deltaT = 0.006350472424023958
Time = 0.0372991

PIMPLE: iteration 1
MULES: Solving for alpha.water
Phase-1 volume fraction = 0.1359565474267839  Min(alpha.water) = -1.135771639980564e-18  Max(alpha.water) = 1
MULES: Solving for alpha.water
Phase-1 volume fraction = 0.135963544701068  Min(alpha.water) = -1.269581190015504e-18  Max(alpha.water) = 1
smoothSolver:  Solving for Ux, Initial residual = 0.1031613612677837, Final residual = 4.20009645553965e-07, No Iterations 6
smoothSolver:  Solving for Uy, Initial residual = 0.105980960618315, Final residual = 4.201948045866333e-07, No Iterations 6
smoothSolver:  Solving for T, Initial residual = 8.615294337968277e-05, Final residual = 3.783388659301581e-11, No Iterations 2
GAMG:  Solving for p_rgh, Initial residual = 0.1256930515599921, Final residual = 0.0005542688453472645, No Iterations 2
GAMG:  Solving for p_rgh, Initial residual = 0.005034210229993345, Final residual = 3.918581694475196e-05, No Iterations 5
GAMG:  Solving for p_rgh, Initial residual = 0.000282358749056602, Final residual = 1.60396905607661e-06, No Iterations 6
GAMG:  Solving for p_rgh, Initial residual = 1.962647536931562e-05, Final residual = 1.435810717008303e-07, No Iterations 9
GAMGPCG:  Solving for p_rgh, Initial residual = 2.947400365382589e-06, Final residual = 3.836841289669729e-08, No Iterations 2
ExecutionTime = 1.85 s  ClockTime = 0 s

forces forces write:
    Sum of forces
        Total    : (0.0007798144781169661 -848.9102712929894 -7.400612143402439e-22)
        Pressure : (0.0003824340544760219 -848.9102196581467 0)
        Viscous  : (0.0003973804236409443 -5.163484267075238e-05 -7.400612143402439e-22)
    Sum of moments
        Total    : (-163.5850092781591 -0.0001502702499335377 2239.530469419062)
        Pressure : (-163.5849993281249 -7.369504229792767e-05 2239.530324361865)
        Viscous  : (-9.950034182653982e-06 -7.657520763561002e-05 0.0001450571970574908)
    writing force and moment files.

Courant Number mean: 0.1073508344650671 max: 0.7450124054961095
Interface Courant Number mean: 0.00539896886544953 max: 0.7295158515505989
deltaT = 0.006350472424023958
Time = 0.0436495

PIMPLE: iteration 1
MULES: Solving for alpha.water
Phase-1 volume fraction = 0.1359658734250298  Min(alpha.water) = -9.776133467854664e-19  Max(alpha.water) = 1
MULES: Solving for alpha.water
Phase-1 volume fraction = 0.1359728002007649  Min(alpha.water) = -2.600377063158145e-18  Max(alpha.water) = 1
smoothSolver:  Solving for Ux, Initial residual = 0.08804470298247416, Final residual = 8.31301386537962e-07, No Iterations 6
smoothSolver:  Solving for Uy, Initial residual = 0.09070714900691625, Final residual = 9.270450211356294e-07, No Iterations 6
smoothSolver:  Solving for T, Initial residual = 0.0001184882968054685, Final residual = 4.677181045265593e-10, No Iterations 2
GAMG:  Solving for p_rgh, Initial residual = 0.1709946836381468, Final residual = 0.001676042711963464, No Iterations 1
GAMG:  Solving for p_rgh, Initial residual = 0.008313116006780252, Final residual = 6.157570196317816e-05, No Iterations 7
GAMG:  Solving for p_rgh, Initial residual = 0.0006048189325311776, Final residual = 5.907789064771984e-06, No Iterations 5
GAMG:  Solving for p_rgh, Initial residual = 4.326302883734265e-05, Final residual = 3.93881339217691e-07, No Iterations 10
GAMGPCG:  Solving for p_rgh, Initial residual = 6.040592062733038e-06, Final residual = 5.606653620140125e-08, No Iterations 2
ExecutionTime = 1.85 s  ClockTime = 0 s

forces forces write:
    Sum of forces
        Total    : (0.0009324347875993505 -848.3940925103321 -8.279798375759628e-22)
        Pressure : (0.0004419875469316992 -848.394036478961 0)
        Viscous  : (0.0004904472406676514 -5.603137114048204e-05 -8.279798375759628e-22)
    Sum of moments
        Total    : (-163.485541626741 -0.0001796801835729144 2238.202910663716)
        Pressure : (-163.4855308294958 -8.517100029625801e-05 2238.202753213374)
        Viscous  : (-1.079724521877089e-05 -9.450918327665636e-05 0.000157450341677708)
    writing force and moment files.

Courant Number mean: 0.1234041986272895 max: 0.7740938611748917
Interface Courant Number mean: 0.00685883379919017 max: 0.7740938611748917
deltaT = 0.006350472424023958
Time = 0.05

PIMPLE: iteration 1
MULES: Solving for alpha.water
Phase-1 volume fraction = 0.1359735795155593  Min(alpha.water) = -2.418391627172966e-18  Max(alpha.water) = 1
MULES: Solving for alpha.water
Phase-1 volume fraction = 0.135978802327431  Min(alpha.water) = -2.061697297673552e-18  Max(alpha.water) = 1
smoothSolver:  Solving for Ux, Initial residual = 0.07657929811896834, Final residual = 2.400641568404463e-07, No Iterations 7
smoothSolver:  Solving for Uy, Initial residual = 0.07847144828170952, Final residual = 2.893999585260952e-07, No Iterations 7
smoothSolver:  Solving for T, Initial residual = 0.0001126920917920538, Final residual = 1.323133705338663e-09, No Iterations 2
GAMG:  Solving for p_rgh, Initial residual = 0.2164944266571653, Final residual = 0.002140759792346947, No Iterations 1
GAMG:  Solving for p_rgh, Initial residual = 0.01163470214264779, Final residual = 0.000115311855073568, No Iterations 6
GAMG:  Solving for p_rgh, Initial residual = 0.0009087669506253172, Final residual = 8.73899622679248e-06, No Iterations 5
GAMG:  Solving for p_rgh, Initial residual = 7.260080960412607e-05, Final residual = 6.228835793516589e-07, No Iterations 9
GAMGPCG:  Solving for p_rgh, Initial residual = 1.204453134942375e-05, Final residual = 9.634325913061323e-08, No Iterations 2
ExecutionTime = 1.87 s  ClockTime = 0 s

forces forces write:
    Sum of forces
        Total    : (0.001236814503716029 -847.8721657084971 -9.114455241178993e-22)
        Pressure : (0.000645867172323733 -847.8721018775955 0)
        Viscous  : (0.0005909473313922956 -6.383090153046195e-05 -9.114455241178993e-22)
    Sum of moments
        Total    : (-163.3849663320273 -0.0002383341548702173 2236.863857263582)
        Pressure : (-163.3849540318126 -0.0001244586041109219 2236.863678113595)
        Viscous  : (-1.230021472492001e-05 -0.0001138755507592954 0.0001791499866855103)
    writing force and moment files.

Courant Number mean: 0.1396662245473017 max: 0.8446369669088755
Interface Courant Number mean: 0.008744457308141136 max: 0.8446369669088755
deltaT = 0.007142857142857144
Time = 0.0571429

PIMPLE: iteration 1
MULES: Solving for alpha.water
Phase-1 volume fraction = 0.1359770526588669  Min(alpha.water) = -7.968615296673999e-19  Max(alpha.water) = 1
MULES: Solving for alpha.water
Phase-1 volume fraction = 0.1359833453703129  Min(alpha.water) = -4.19938691290866e-18  Max(alpha.water) = 1
smoothSolver:  Solving for Ux, Initial residual = 0.08027617064880745, Final residual = 9.284614266298693e-07, No Iterations 7
smoothSolver:  Solving for Uy, Initial residual = 0.08172454316381808, Final residual = 2.833019551730728e-07, No Iterations 8
smoothSolver:  Solving for T, Initial residual = 0.0002106926634728351, Final residual = 6.420783870138184e-09, No Iterations 2
GAMG:  Solving for p_rgh, Initial residual = 0.2968565013610664, Final residual = 0.001965065991957126, No Iterations 1
GAMG:  Solving for p_rgh, Initial residual = 0.01800910197094679, Final residual = 0.0001311233669660231, No Iterations 6
GAMG:  Solving for p_rgh, Initial residual = 0.001338675980380282, Final residual = 9.667452949322092e-06, No Iterations 5
GAMG:  Solving for p_rgh, Initial residual = 0.000146094395036416, Final residual = 1.066222301032152e-06, No Iterations 8
GAMGPCG:  Solving for p_rgh, Initial residual = 3.032350051165566e-05, Final residual = 2.281480565639953e-08, No Iterations 3
ExecutionTime = 1.89 s  ClockTime = 0 s

forces forces write:
    Sum of forces
        Total    : (0.001352072854368979 -847.2430693907445 -9.300062111233262e-22)
        Pressure : (0.0006336072295862749 -847.2430033056861 0)
        Viscous  : (0.0007184656247827045 -6.608505834876148e-05 -9.300062111233262e-22)
    Sum of moments
        Total    : (-163.2637394715964 -0.0002605444390379165 2235.249121736108)
        Pressure : (-163.2637267370057 -0.0001220961131422893 2235.248936136441)
        Viscous  : (-1.273459074380634e-05 -0.0001384483258956272 0.0001855996677796729)
    writing force and moment files.

Courant Number mean: 0.1771542944499867 max: 1.043700891641147
Interface Courant Number mean: 0.01107345806730555 max: 1.043700891641147
deltaT = 0.007142857142857143
Time = 0.0642857

PIMPLE: iteration 1
MULES: Solving for alpha.water
Phase-1 volume fraction = 0.1359809530889882  Min(alpha.water) = -8.836268466277415e-19  Max(alpha.water) = 1
MULES: Solving for alpha.water
Phase-1 volume fraction = 0.1359825563407738  Min(alpha.water) = -6.335757604363236e-18  Max(alpha.water) = 1
smoothSolver:  Solving for Ux, Initial residual = 0.07178526450115612, Final residual = 3.252287328897817e-07, No Iterations 8
smoothSolver:  Solving for Uy, Initial residual = 0.07424518054446552, Final residual = 6.543569083665253e-07, No Iterations 8
smoothSolver:  Solving for T, Initial residual = 0.000180717372296579, Final residual = 1.503523344623108e-10, No Iterations 3
GAMG:  Solving for p_rgh, Initial residual = 0.3074171141830951, Final residual = 0.00258490423558076, No Iterations 1
GAMG:  Solving for p_rgh, Initial residual = 0.01889270113419013, Final residual = 0.0001361699995437556, No Iterations 6
GAMG:  Solving for p_rgh, Initial residual = 0.001489690443535549, Final residual = 1.027024112256218e-05, No Iterations 5
GAMG:  Solving for p_rgh, Initial residual = 0.0002011805471123462, Final residual = 1.518323193674418e-06, No Iterations 7
GAMGPCG:  Solving for p_rgh, Initial residual = 4.463380874488419e-05, Final residual = 3.064737688485934e-08, No Iterations 3
ExecutionTime = 1.9 s  ClockTime = 0 s

forces forces write:
    Sum of forces
        Total    : (0.001592813435491229 -846.6308430579699 -8.993318762935591e-22)
        Pressure : (0.0007416840102294486 -846.6307721546168 0)
        Viscous  : (0.0008511294252617803 -7.090335308050625e-05 -8.993318762935591e-22)
    Sum of moments
        Total    : (-163.1457634572708 -0.0003069351490167397 2233.686219477927)
        Pressure : (-163.1457497941947 -0.0001429225087687946 2233.686020442761)
        Viscous  : (-1.366307613861355e-05 -0.0001640126402479451 0.0001990351661323238)
    writing force and moment files.

Courant Number mean: 0.1965641438137997 max: 1.119343925942928
Interface Courant Number mean: 0.01119686753836046 max: 1.119343925942928
deltaT = 0.005952380952380952
Time = 0.0702381

PIMPLE: iteration 1
MULES: Solving for alpha.water
Phase-1 volume fraction = 0.1359809626592572  Min(alpha.water) = -7.342595346609496e-18  Max(alpha.water) = 1
MULES: Solving for alpha.water
Phase-1 volume fraction = 0.1359795826891884  Min(alpha.water) = -1.262459958339278e-18  Max(alpha.water) = 1
smoothSolver:  Solving for Ux, Initial residual = 0.05173585912072496, Final residual = 5.600842070928537e-07, No Iterations 7
smoothSolver:  Solving for Uy, Initial residual = 0.0536953580218015, Final residual = 2.04311650984629e-07, No Iterations 8
smoothSolver:  Solving for T, Initial residual = 0.0001398675471518439, Final residual = 2.032047499715766e-10, No Iterations 3
GAMG:  Solving for p_rgh, Initial residual = 0.197075663820828, Final residual = 0.0006691426905533343, No Iterations 2
GAMG:  Solving for p_rgh, Initial residual = 0.006009922950190315, Final residual = 5.059374140397854e-05, No Iterations 5
GAMG:  Solving for p_rgh, Initial residual = 0.0005615219307724486, Final residual = 4.271106821336458e-06, No Iterations 5
GAMG:  Solving for p_rgh, Initial residual = 6.920172500111657e-05, Final residual = 6.70458030233336e-07, No Iterations 5
GAMGPCG:  Solving for p_rgh, Initial residual = 1.499346100004154e-05, Final residual = 9.545251227638794e-08, No Iterations 2
ExecutionTime = 1.91 s  ClockTime = 0 s

forces forces write:
    Sum of forces
        Total    : (0.001904049869071602 -846.3457382297676 -7.910675369078904e-22)
        Pressure : (0.0009297351635630946 -846.3456633640408 0)
        Viscous  : (0.000974314705508507 -7.486572680365968e-05 -7.910675369078904e-22)
    Sum of moments
        Total    : (-163.0908237568763 -0.0003669104097714042 2232.988338613866)
        Pressure : (-163.0908093302507 -0.000179159966019915 2232.988128582691)
        Viscous  : (-1.442662555506521e-05 -0.0001877504437514892 0.0002100311748850196)
    writing force and moment files.

Courant Number mean: 0.1743656383287732 max: 1.006032999436595
Interface Courant Number mean: 0.01055814497706208 max: 1.006032999436595
deltaT = 0.005952380952380954
Time = 0.0761905

PIMPLE: iteration 1
MULES: Solving for alpha.water
Phase-1 volume fraction = 0.135977565243442  Min(alpha.water) = -9.408802485296042e-19  Max(alpha.water) = 1
MULES: Solving for alpha.water
Phase-1 volume fraction = 0.1359781143879998  Min(alpha.water) = -3.8326667926923e-18  Max(alpha.water) = 1
smoothSolver:  Solving for Ux, Initial residual = 0.04911159647449786, Final residual = 8.621724034644479e-07, No Iterations 7
smoothSolver:  Solving for Uy, Initial residual = 0.04939114195729591, Final residual = 3.034013272173836e-07, No Iterations 8
smoothSolver:  Solving for T, Initial residual = 0.0001749705434341814, Final residual = 3.960156483828718e-10, No Iterations 3
GAMG:  Solving for p_rgh, Initial residual = 0.2678778343334772, Final residual = 0.0008441288435898461, No Iterations 2
GAMG:  Solving for p_rgh, Initial residual = 0.008208091084771567, Final residual = 5.014642084839314e-05, No Iterations 4
GAMG:  Solving for p_rgh, Initial residual = 0.000774676371130255, Final residual = 5.495297663046082e-06, No Iterations 4
GAMG:  Solving for p_rgh, Initial residual = 9.249119777466538e-05, Final residual = 7.215573061100541e-07, No Iterations 6
GAMGPCG:  Solving for p_rgh, Initial residual = 2.099315332748041e-05, Final residual = 1.099422265077013e-08, No Iterations 3
ExecutionTime = 1.92 s  ClockTime = 0 s

forces forces write:
    Sum of forces
        Total    : (0.002042963333675388 -846.0613655157237 -8.832362898175531e-22)
        Pressure : (0.0009356397953155238 -846.0612902186621 0)
        Viscous  : (0.001107323538359864 -7.529706159483753e-05 -8.832362898175531e-22)
    Sum of moments
        Total    : (-163.03602513488 -0.0003936790344020479 2232.285057642981)
        Pressure : (-163.0360106251363 -0.000180297788560102 2232.284846225251)
        Viscous  : (-1.450974376932519e-05 -0.0002133812458419458 0.0002114177295683841)
    writing force and moment files.

Courant Number mean: 0.1869559276053788 max: 1.067007375091098
Interface Courant Number mean: 0.01240951743596701 max: 1.067007375091098
deltaT = 0.005952380952380952
Time = 0.0821429

PIMPLE: iteration 1
MULES: Solving for alpha.water
Phase-1 volume fraction = 0.1359759621306247  Min(alpha.water) = -6.608069470997885e-19  Max(alpha.water) = 1
MULES: Solving for alpha.water
Phase-1 volume fraction = 0.1359759397514761  Min(alpha.water) = -4.442636012150517e-18  Max(alpha.water) = 1
smoothSolver:  Solving for Ux, Initial residual = 0.0450312532556482, Final residual = 2.893077214511521e-07, No Iterations 8
smoothSolver:  Solving for Uy, Initial residual = 0.04654254111026752, Final residual = 5.721918903140984e-07, No Iterations 8
smoothSolver:  Solving for T, Initial residual = 0.0001457243127839589, Final residual = 6.404690340825578e-10, No Iterations 3
GAMG:  Solving for p_rgh, Initial residual = 0.3088903075073837, Final residual = 0.001175984970001389, No Iterations 2
GAMG:  Solving for p_rgh, Initial residual = 0.0113760069746925, Final residual = 7.935877517584934e-05, No Iterations 4
GAMG:  Solving for p_rgh, Initial residual = 0.001219940992809221, Final residual = 7.842281631458074e-06, No Iterations 5
GAMG:  Solving for p_rgh, Initial residual = 0.0001907908937273251, Final residual = 1.682014455692452e-06, No Iterations 4
GAMGPCG:  Solving for p_rgh, Initial residual = 5.076421767046716e-05, Final residual = 2.497555218748369e-08, No Iterations 3
ExecutionTime = 1.93 s  ClockTime = 0 s

forces forces write:
    Sum of forces
        Total    : (0.002380947658693052 -845.7873335958413 -8.843652966469117e-22)
        Pressure : (0.001137579886146156 -845.7872546731893 0)
        Viscous  : (0.001243367772546896 -7.89226520823128e-05 -8.843652966469117e-22)
    Sum of moments
        Total    : (-162.9832191839187 -0.0004588086138318097 2231.611945067295)
        Pressure : (-162.9832039755236 -0.0002192116440620229 2231.611723596014)
        Viscous  : (-1.520839505626168e-05 -0.0002395969697697868 0.0002214712810845342)
    writing force and moment files.

Courant Number mean: 0.2003549550050099 max: 1.103268290404198
Interface Courant Number mean: 0.0126481322332008 max: 1.103268290404198
deltaT = 0.005952380952380949
Time = 0.0880952

PIMPLE: iteration 1
MULES: Solving for alpha.water
Phase-1 volume fraction = 0.1359735147574169  Min(alpha.water) = -5.706516013787557e-18  Max(alpha.water) = 1
MULES: Solving for alpha.water
Phase-1 volume fraction = 0.1359733459672829  Min(alpha.water) = -4.748945572061466e-18  Max(alpha.water) = 1
smoothSolver:  Solving for Ux, Initial residual = 0.0411616663507902, Final residual = 3.71570994703945e-07, No Iterations 8
smoothSolver:  Solving for Uy, Initial residual = 0.04369788469146597, Final residual = 7.802640644721783e-07, No Iterations 8
smoothSolver:  Solving for T, Initial residual = 0.0001771573327618616, Final residual = 1.072190150913835e-09, No Iterations 3
GAMG:  Solving for p_rgh, Initial residual = 0.2573285349248342, Final residual = 0.001485297835888782, No Iterations 2
GAMG:  Solving for p_rgh, Initial residual = 0.01182235263544948, Final residual = 8.354425510236207e-05, No Iterations 5
GAMG:  Solving for p_rgh, Initial residual = 0.001385348999960176, Final residual = 9.521138798322962e-06, No Iterations 5
GAMG:  Solving for p_rgh, Initial residual = 0.0002384107170303844, Final residual = 2.042344511237783e-06, No Iterations 3
GAMGPCG:  Solving for p_rgh, Initial residual = 6.784304055312518e-05, Final residual = 3.670709888659922e-08, No Iterations 3
ExecutionTime = 1.94 s  ClockTime = 0 s

forces forces write:
    Sum of forces
        Total    : (0.002800751514963336 -845.5192209861837 -5.411663773011169e-22)
        Pressure : (0.001410836435846718 -845.5191381351107 0)
        Viscous  : (0.001389915079116618 -8.285107296111406e-05 -5.411663773011169e-22)
    Sum of moments
        Total    : (-162.9315538840376 -0.0005397048169359549 2230.957490244831)
        Pressure : (-162.9315379186358 -0.0002718681811901824 2230.957257941494)
        Viscous  : (-1.596540175960667e-05 -0.0002678366357457725 0.000232303337394669)
    writing force and moment files.

Courant Number mean: 0.2131712822452445 max: 1.25159185554995
Interface Courant Number mean: 0.01239945464444902 max: 1.129386592769149
deltaT = 0.003968253968253968
Time = 0.0920635

PIMPLE: iteration 1
MULES: Solving for alpha.water
Phase-1 volume fraction = 0.1359722883967978  Min(alpha.water) = -1.170499587873721e-18  Max(alpha.water) = 1
MULES: Solving for alpha.water
Phase-1 volume fraction = 0.1359718650389541  Min(alpha.water) = -2.948305147011767e-18  Max(alpha.water) = 1
smoothSolver:  Solving for Ux, Initial residual = 0.0225062894072442, Final residual = 5.9027659738698e-07, No Iterations 6
smoothSolver:  Solving for Uy, Initial residual = 0.02361830316682934, Final residual = 9.869474335356679e-07, No Iterations 6
smoothSolver:  Solving for T, Initial residual = 0.0001178143767615753, Final residual = 8.41136567689162e-09, No Iterations 2
GAMG:  Solving for p_rgh, Initial residual = 0.1903433390190928, Final residual = 0.001724843349110371, No Iterations 1
GAMG:  Solving for p_rgh, Initial residual = 0.005035938731651494, Final residual = 3.401136659637031e-05, No Iterations 5
GAMG:  Solving for p_rgh, Initial residual = 0.0005371264281473071, Final residual = 3.852541684891821e-06, No Iterations 5
GAMG:  Solving for p_rgh, Initial residual = 5.179549309765031e-05, Final residual = 3.203923865707212e-07, No Iterations 5
GAMGPCG:  Solving for p_rgh, Initial residual = 1.03316901143396e-05, Final residual = 7.310460567319961e-08, No Iterations 2
ExecutionTime = 1.95 s  ClockTime = 0 s

forces forces write:
    Sum of forces
        Total    : (0.002591027313436168 -845.4637008771548 -8.288700525253686e-22)
        Pressure : (0.00109723922166971 -845.4636189363894 0)
        Viscous  : (0.001493788091766458 -8.19407654158471e-05 -8.288700525253686e-22)
    Sum of moments
        Total    : (-162.9208551590278 -0.0004992909633016566 2230.860150308661)
        Pressure : (-162.9208393690423 -0.0002114379980182601 2230.859920303123)
        Viscous  : (-1.578998549563373e-05 -0.0002878529652833965 0.000230005537899731)
    writing force and moment files.

Courant Number mean: 0.143101400237102 max: 0.893843748349449
Interface Courant Number mean: 0.009594892262748983 max: 0.7748512892593969
deltaT = 0.003968253968253968
Time = 0.0960317

PIMPLE: iteration 1
MULES: Solving for alpha.water
Phase-1 volume fraction = 0.1359711714702054  Min(alpha.water) = -3.252646274183933e-18  Max(alpha.water) = 1
MULES: Solving for alpha.water
Phase-1 volume fraction = 0.1359710627486049  Min(alpha.water) = -8.165429368100343e-19  Max(alpha.water) = 1
smoothSolver:  Solving for Ux, Initial residual = 0.02151907756030922, Final residual = 7.758374659377986e-07, No Iterations 6
smoothSolver:  Solving for Uy, Initial residual = 0.02240489680179475, Final residual = 2.736056784503829e-07, No Iterations 7
smoothSolver:  Solving for T, Initial residual = 6.95380993652081e-05, Final residual = 9.572690532764574e-09, No Iterations 2
GAMG:  Solving for p_rgh, Initial residual = 0.2277320824818562, Final residual = 0.001503575624341059, No Iterations 1
GAMG:  Solving for p_rgh, Initial residual = 0.006690464075964919, Final residual = 5.505354818129439e-05, No Iterations 6
GAMG:  Solving for p_rgh, Initial residual = 0.0007370462856903913, Final residual = 5.798063739994361e-06, No Iterations 5
GAMG:  Solving for p_rgh, Initial residual = 9.617801547802514e-05, Final residual = 7.706363032388527e-07, No Iterations 6
GAMGPCG:  Solving for p_rgh, Initial residual = 2.328959911910697e-05, Final residual = 8.61579594573319e-09, No Iterations 3
ExecutionTime = 1.96 s  ClockTime = 0 s

forces forces write:
    Sum of forces
        Total    : (0.004014805986175788 -845.3831755281784 -6.492924118780559e-22)
        Pressure : (0.00241430167668355 -845.383088770897 0)
        Viscous  : (0.001600504309492238 -8.675728140072825e-05 -6.492924118780559e-22)
    Sum of moments
        Total    : (-162.90533792428 -0.0007736531135325985 2230.681278836893)
        Pressure : (-162.9053212061518 -0.0004652359330934441 2230.681035719666)
        Viscous  : (-1.671812812592034e-05 -0.0003084171804391543 0.0002431172268354716)
    writing force and moment files.

Courant Number mean: 0.1518916007600412 max: 1.040333097140294
Interface Courant Number mean: 0.009905382602696312 max: 0.7887691872707654
deltaT = 0.003968253968253968
Time = 0.1

PIMPLE: iteration 1
MULES: Solving for alpha.water
Phase-1 volume fraction = 0.1359697326817609  Min(alpha.water) = -4.156746551919512e-18  Max(alpha.water) = 1
MULES: Solving for alpha.water
Phase-1 volume fraction = 0.1359709293968126  Min(alpha.water) = -2.656315130666401e-18  Max(alpha.water) = 1
smoothSolver:  Solving for Ux, Initial residual = 0.02038084269257444, Final residual = 9.061567587806702e-07, No Iterations 6
smoothSolver:  Solving for Uy, Initial residual = 0.02142292384914654, Final residual = 3.502891718808975e-07, No Iterations 7
smoothSolver:  Solving for T, Initial residual = 0.0001106718867352438, Final residual = 2.975492745166833e-10, No Iterations 3
GAMG:  Solving for p_rgh, Initial residual = 0.2482297341482871, Final residual = 0.002009981441432011, No Iterations 1
GAMG:  Solving for p_rgh, Initial residual = 0.008169554786443304, Final residual = 7.547941028778667e-05, No Iterations 4
GAMG:  Solving for p_rgh, Initial residual = 0.0008156354074720841, Final residual = 5.710516362885114e-06, No Iterations 4
GAMG:  Solving for p_rgh, Initial residual = 0.0001287542184945792, Final residual = 8.10536069035777e-07, No Iterations 4
GAMGPCG:  Solving for p_rgh, Initial residual = 3.2006487396121e-05, Final residual = 7.462921442024168e-08, No Iterations 2
ExecutionTime = 1.98 s  ClockTime = 0 s

forces forces write:
    Sum of forces
        Total    : (0.003254724577150124 -845.2504278940208 -7.869109002590593e-22)
        Pressure : (0.001543308332561111 -845.2503419337726 0)
        Viscous  : (0.001711416244589013 -8.596024826798719e-05 -7.869109002590593e-22)
    Sum of moments
        Total    : (-162.8797574551779 -0.0006271854260173867 2230.364665348415)
        Pressure : (-162.879740890638 -0.0002973955156850838 2230.364424202752)
        Viscous  : (-1.656453984124113e-05 -0.0003297899103323028 0.0002411456629403701)
    writing force and moment files.

Courant Number mean: 0.1552204106377586 max: 1.130434307739369
Interface Courant Number mean: 0.009555183332049631 max: 0.7927896903061458
deltaT = 0.003571428571428573
Time = 0.103571

PIMPLE: iteration 1
MULES: Solving for alpha.water
Phase-1 volume fraction = 0.135970107849002  Min(alpha.water) = -3.677337635289206e-18  Max(alpha.water) = 1
MULES: Solving for alpha.water
Phase-1 volume fraction = 0.1359699159985792  Min(alpha.water) = -1.992991666550165e-18  Max(alpha.water) = 1
smoothSolver:  Solving for Ux, Initial residual = 0.01641624643556063, Final residual = 5.003298509846552e-07, No Iterations 6
smoothSolver:  Solving for Uy, Initial residual = 0.01784885016792818, Final residual = 1.839114406830885e-07, No Iterations 7
smoothSolver:  Solving for T, Initial residual = 7.145230524349878e-05, Final residual = 8.222441654725561e-09, No Iterations 2
GAMG:  Solving for p_rgh, Initial residual = 0.2175227503570073, Final residual = 0.0005161844816918589, No Iterations 2
GAMG:  Solving for p_rgh, Initial residual = 0.00649931818243175, Final residual = 5.511984286330733e-05, No Iterations 3
GAMG:  Solving for p_rgh, Initial residual = 0.0006125090025258352, Final residual = 5.920973798270156e-06, No Iterations 4
GAMG:  Solving for p_rgh, Initial residual = 0.0001020760580000993, Final residual = 6.9230986526558e-07, No Iterations 4
GAMGPCG:  Solving for p_rgh, Initial residual = 2.682451417817977e-05, Final residual = 3.847368085884817e-08, No Iterations 2
ExecutionTime = 1.99 s  ClockTime = 0 s

forces forces write:
    Sum of forces
        Total    : (0.004864648083926045 -845.2032743877382 -7.976143835422599e-22)
        Pressure : (0.003050842477311022 -845.2031849427136 0)
        Viscous  : (0.001813805606615023 -8.944502463465712e-05 -7.976143835422599e-22)
    Sum of moments
        Total    : (-162.8706709745172 -0.0009374176857732781 2230.276680505795)
        Pressure : (-162.870653738461 -0.000587897345378563 2230.276429888803)
        Viscous  : (-1.723605624709844e-05 -0.0003495203403947151 0.0002506169920881901)
    writing force and moment files.

Courant Number mean: 0.1449652586968638 max: 1.164360731167168
Interface Courant Number mean: 0.008639552808856815 max: 0.7119969803800282
deltaT = 0.003095238095238096
Time = 0.106667

PIMPLE: iteration 1
MULES: Solving for alpha.water
Phase-1 volume fraction = 0.135969073707733  Min(alpha.water) = -4.141943118454974e-18  Max(alpha.water) = 1
MULES: Solving for alpha.water
Phase-1 volume fraction = 0.135969594298441  Min(alpha.water) = -2.786922453981256e-18  Max(alpha.water) = 1
smoothSolver:  Solving for Ux, Initial residual = 0.01280601187600535, Final residual = 2.07510380841294e-07, No Iterations 6
smoothSolver:  Solving for Uy, Initial residual = 0.01395836131251127, Final residual = 3.917287394894769e-07, No Iterations 6
smoothSolver:  Solving for T, Initial residual = 8.41219144719377e-05, Final residual = 5.049303382025138e-09, No Iterations 2
GAMG:  Solving for p_rgh, Initial residual = 0.1679441439935464, Final residual = 0.0005887175335818211, No Iterations 2
GAMG:  Solving for p_rgh, Initial residual = 0.004290092264459288, Final residual = 2.801324109347875e-05, No Iterations 4
GAMG:  Solving for p_rgh, Initial residual = 0.0003475696699224895, Final residual = 1.269648082294377e-06, No Iterations 4
GAMG:  Solving for p_rgh, Initial residual = 5.124983489428377e-05, Final residual = 3.684297537038275e-07, No Iterations 5
GAMGPCG:  Solving for p_rgh, Initial residual = 1.159911494553337e-05, Final residual = 4.102163711243087e-08, No Iterations 2
ExecutionTime = 2 s  ClockTime = 0 s

forces forces write:
    Sum of forces
        Total    : (0.003705335640530415 -845.1174084350712 -8.256824576606083e-22)
        Pressure : (0.001801565334456967 -845.1173197544462 0)
        Viscous  : (0.001903770306073448 -8.868062499700344e-05 -8.256824576606083e-22)
    Sum of moments
        Total    : (-162.8541246054383 -0.0007140181779312081 2230.079098743053)
        Pressure : (-162.8541075166819 -0.0003471616399508548 2230.078850035177)
        Viscous  : (-1.708875643692256e-05 -0.0003668565379803533 0.0002487078761700395)
    writing force and moment files.

Courant Number mean: 0.1258929503029637 max: 1.065428498442892
Interface Courant Number mean: 0.007607627923504849 max: 0.6373060058545512
deltaT = 0.00288888888888889
Time = 0.109556

PIMPLE: iteration 1
MULES: Solving for alpha.water
Phase-1 volume fraction = 0.1359691937481264  Min(alpha.water) = -2.10184982512777e-18  Max(alpha.water) = 1
MULES: Solving for alpha.water
Phase-1 volume fraction = 0.1359689192194841  Min(alpha.water) = -3.684535736660201e-18  Max(alpha.water) = 1
smoothSolver:  Solving for Ux, Initial residual = 0.01108712829746993, Final residual = 9.235350099150892e-07, No Iterations 5
smoothSolver:  Solving for Uy, Initial residual = 0.01218556832222724, Final residual = 2.7309221222934e-07, No Iterations 6
smoothSolver:  Solving for T, Initial residual = 5.395913367216567e-05, Final residual = 4.210001548589941e-09, No Iterations 2
GAMG:  Solving for p_rgh, Initial residual = 0.1732931253966232, Final residual = 0.0005999347728155446, No Iterations 2
GAMG:  Solving for p_rgh, Initial residual = 0.004040466148100346, Final residual = 3.137664420637376e-05, No Iterations 5
GAMG:  Solving for p_rgh, Initial residual = 0.0003471002543160185, Final residual = 2.849195878452534e-06, No Iterations 5
GAMG:  Solving for p_rgh, Initial residual = 5.144797107406117e-05, Final residual = 3.810350340564015e-07, No Iterations 3
GAMGPCG:  Solving for p_rgh, Initial residual = 1.4009552403359e-05, Final residual = 3.415419024104494e-08, No Iterations 2
ExecutionTime = 2.01 s  ClockTime = 0 s

forces forces write:
    Sum of forces
        Total    : (0.006515081794794127 -845.1222812840645 -8.465324480774381e-22)
        Pressure : (0.004524579617681823 -845.1221914177131 0)
        Viscous  : (0.001990502177112303 -8.986635137727791e-05 -8.465324480774381e-22)
    Sum of moments
        Total    : (-162.8550636034392 -0.001255456261857152 2230.120448850626)
        Pressure : (-162.8550462861933 -0.0008718864923276115 2230.120196859927)
        Viscous  : (-1.731724591040144e-05 -0.0003835697695295408 0.0002519906992731515)
    writing force and moment files.

Courant Number mean: 0.1207748178432131 max: 1.124918629548957
Interface Courant Number mean: 0.00830007684840227 max: 0.6010983014443287
deltaT = 0.002527777777777779
Time = 0.112083

PIMPLE: iteration 1
MULES: Solving for alpha.water
Phase-1 volume fraction = 0.1359684535093916  Min(alpha.water) = -3.639266138807863e-18  Max(alpha.water) = 1
MULES: Solving for alpha.water
Phase-1 volume fraction = 0.1359689208583724  Min(alpha.water) = -6.61467034666336e-18  Max(alpha.water) = 1
smoothSolver:  Solving for Ux, Initial residual = 0.008990833454578333, Final residual = 4.915703971324759e-07, No Iterations 5
smoothSolver:  Solving for Uy, Initial residual = 0.009706144444191572, Final residual = 8.617429882524633e-07, No Iterations 5
smoothSolver:  Solving for T, Initial residual = 4.423011705459902e-05, Final residual = 2.549892651153564e-09, No Iterations 2
GAMG:  Solving for p_rgh, Initial residual = 0.1702269165465947, Final residual = 0.0009826598539199735, No Iterations 2
GAMG:  Solving for p_rgh, Initial residual = 0.004680298348531582, Final residual = 4.245120598652397e-05, No Iterations 7
GAMG:  Solving for p_rgh, Initial residual = 0.0004359957782263998, Final residual = 4.049283826846536e-06, No Iterations 5
GAMG:  Solving for p_rgh, Initial residual = 5.068552628722951e-05, Final residual = 4.429330948391258e-07, No Iterations 6
GAMGPCG:  Solving for p_rgh, Initial residual = 1.308845523465622e-05, Final residual = 2.925609047339449e-08, No Iterations 2
ExecutionTime = 2.02 s  ClockTime = 0 s

forces forces write:
    Sum of forces
        Total    : (0.004992174973575087 -845.0897556104221 -8.517703730898018e-22)
        Pressure : (0.002926712242285134 -845.0896638659567 0)
        Viscous  : (0.002065462731289953 -9.174446545986417e-05 -8.517703730898018e-22)
    Sum of moments
        Total    : (-162.8487959061283 -0.0009619921174077784 2230.05696621048)
        Pressure : (-162.8487782269698 -0.0005639774490882044 2230.056709139726)
        Viscous  : (-1.767915849411582e-05 -0.0003980146683195741 0.0002570707549606893)
    writing force and moment files.

Courant Number mean: 0.1072381492179016 max: 1.04075602242786
Interface Courant Number mean: 0.0070978578068368 max: 0.5204835006789423
deltaT = 0.002369791666666668
Time = 0.114453

PIMPLE: iteration 1
MULES: Solving for alpha.water
Phase-1 volume fraction = 0.1359685777051065  Min(alpha.water) = -3.942508397806441e-18  Max(alpha.water) = 1
MULES: Solving for alpha.water
Phase-1 volume fraction = 0.135968813796653  Min(alpha.water) = -3.688056862570655e-18  Max(alpha.water) = 1
smoothSolver:  Solving for Ux, Initial residual = 0.007918064783775028, Final residual = 3.665362747531901e-07, No Iterations 5
smoothSolver:  Solving for Uy, Initial residual = 0.00865321177004507, Final residual = 6.610651530681493e-07, No Iterations 5
smoothSolver:  Solving for T, Initial residual = 4.429605882260831e-05, Final residual = 2.030702990500893e-09, No Iterations 2
GAMG:  Solving for p_rgh, Initial residual = 0.1696440049410211, Final residual = 0.001016421784504003, No Iterations 2
GAMG:  Solving for p_rgh, Initial residual = 0.004614802828085749, Final residual = 3.869174062324608e-05, No Iterations 8
GAMG:  Solving for p_rgh, Initial residual = 0.0004239724296774866, Final residual = 3.58470245939049e-06, No Iterations 5
GAMG:  Solving for p_rgh, Initial residual = 5.51501462572014e-05, Final residual = 4.014050845952003e-07, No Iterations 7
GAMGPCG:  Solving for p_rgh, Initial residual = 1.122248464471997e-05, Final residual = 2.762089305164519e-08, No Iterations 2
ExecutionTime = 2.03 s  ClockTime = 0 s

forces forces write:
    Sum of forces
        Total    : (0.009625400337393503 -845.0373289127594 -8.517565801934423e-22)
        Pressure : (0.007483350399212441 -845.0372371873483 0)
        Viscous  : (0.002142049938181062 -9.172541115577342e-05 -8.517565801934423e-22)
    Sum of moments
        Total    : (-162.8386932814888 -0.001854814645016448 2229.939748794583)
        Pressure : (-162.8386756060021 -0.001442041621928958 2229.939491725669)
        Viscous  : (-1.767548672971753e-05 -0.0004127730230874905 0.000257068913840542)
    writing force and moment files.

Courant Number mean: 0.1017347755412639 max: 1.055489541280958
Interface Courant Number mean: 0.006659744976440317 max: 0.4747315404493023
deltaT = 0.002221679687500001
Time = 0.116675

PIMPLE: iteration 1
MULES: Solving for alpha.water
Phase-1 volume fraction = 0.1359685834687019  Min(alpha.water) = -1.09510734618349e-18  Max(alpha.water) = 1
MULES: Solving for alpha.water
Phase-1 volume fraction = 0.1359688191441741  Min(alpha.water) = -1.10466812797476e-18  Max(alpha.water) = 1
smoothSolver:  Solving for Ux, Initial residual = 0.006860136306268494, Final residual = 2.534263504373394e-07, No Iterations 5
smoothSolver:  Solving for Uy, Initial residual = 0.007729465865812194, Final residual = 4.893802272562143e-07, No Iterations 5
smoothSolver:  Solving for T, Initial residual = 3.957011374010511e-05, Final residual = 1.66185108941986e-09, No Iterations 2
GAMG:  Solving for p_rgh, Initial residual = 0.1563411512072761, Final residual = 0.00101034918802079, No Iterations 2
GAMG:  Solving for p_rgh, Initial residual = 0.004662304322850471, Final residual = 4.128647915798685e-05, No Iterations 8
GAMG:  Solving for p_rgh, Initial residual = 0.0004495921519259262, Final residual = 3.252918803824104e-06, No Iterations 5
GAMG:  Solving for p_rgh, Initial residual = 7.886508197461054e-05, Final residual = 6.063905832039763e-07, No Iterations 6
GAMGPCG:  Solving for p_rgh, Initial residual = 2.1015650898957e-05, Final residual = 2.697094885602425e-08, No Iterations 2
ExecutionTime = 2.04 s  ClockTime = 0 s

forces forces write:
    Sum of forces
        Total    : (0.0199079616921024 -845.0315186249726 -8.51851376289213e-22)
        Pressure : (0.01769314704958802 -845.0314290167505 0)
        Viscous  : (0.002214814642514384 -8.960822208585844e-05 -8.51851376289213e-22)
    Sum of moments
        Total    : (-162.8375736390322 -0.00383626421806867 2229.944465531049)
        Pressure : (-162.8375563715278 -0.003409469436456147 2229.944214071226)
        Viscous  : (-1.726750439594493e-05 -0.0004267947816125222 0.0002514598226475045)
    writing force and moment files.

Courant Number mean: 0.0973603310190235 max: 1.100142670340601
Interface Courant Number mean: 0.006172703978724894 max: 0.5802119141921929
deltaT = 0.001960305606617648
Time = 0.118635

PIMPLE: iteration 1
MULES: Solving for alpha.water
Phase-1 volume fraction = 0.1359686540901794  Min(alpha.water) = -1.741027373213235e-18  Max(alpha.water) = 1
MULES: Solving for alpha.water
Phase-1 volume fraction = 0.135968916047805  Min(alpha.water) = -1.848952459835134e-18  Max(alpha.water) = 1
smoothSolver:  Solving for Ux, Initial residual = 0.005611828190410225, Final residual = 1.25601980553955e-07, No Iterations 5
smoothSolver:  Solving for Uy, Initial residual = 0.006276016791036841, Final residual = 2.229449383088039e-07, No Iterations 5
smoothSolver:  Solving for T, Initial residual = 3.205396910969905e-05, Final residual = 1.034845691541175e-09, No Iterations 2
GAMG:  Solving for p_rgh, Initial residual = 0.1390852833986114, Final residual = 0.0006782604927563044, No Iterations 2
GAMG:  Solving for p_rgh, Initial residual = 0.00356954778387236, Final residual = 3.05770960438652e-05, No Iterations 7
GAMG:  Solving for p_rgh, Initial residual = 0.0003059973736891743, Final residual = 1.886795880483044e-06, No Iterations 5
GAMG:  Solving for p_rgh, Initial residual = 5.834708343591291e-05, Final residual = 5.77977265124362e-07, No Iterations 3
GAMGPCG:  Solving for p_rgh, Initial residual = 1.834646954272011e-05, Final residual = 2.60323543447142e-08, No Iterations 2
ExecutionTime = 2.05 s  ClockTime = 0 s

forces forces write:
    Sum of forces
        Total    : (0.03372098604119113 -845.0697926828884 -8.491617122770172e-22)
        Pressure : (0.03144301366150337 -845.0697090433137 0)
        Viscous  : (0.002277972379687755 -8.363957474018495e-05 -8.491617122770172e-22)
    Sum of moments
        Total    : (-162.8449490499926 -0.006498034010139722 2230.06445498812)
        Pressure : (-162.8449329326465 -0.006059068732573891 2230.06421937413)
        Viscous  : (-1.611734605243364e-05 -0.0004389652775658308 0.0002356139899735795)
    writing force and moment files.

Courant Number mean: 0.08698081538736958 max: 1.044322339313595
Interface Courant Number mean: 0.005690166605005817 max: 0.5162816642565504
deltaT = 0.001844993512110727
Time = 0.12048

PIMPLE: iteration 1
MULES: Solving for alpha.water
Phase-1 volume fraction = 0.1359687310770258  Min(alpha.water) = -4.770907954294495e-18  Max(alpha.water) = 1
MULES: Solving for alpha.water
Phase-1 volume fraction = 0.1359689911739387  Min(alpha.water) = -1.0539313050989e-18  Max(alpha.water) = 1
smoothSolver:  Solving for Ux, Initial residual = 0.004972278609837875, Final residual = 8.111886804957871e-07, No Iterations 4
smoothSolver:  Solving for Uy, Initial residual = 0.005614904424332347, Final residual = 1.736777777130873e-07, No Iterations 5
smoothSolver:  Solving for T, Initial residual = 2.901951147155916e-05, Final residual = 8.287756280784281e-10, No Iterations 2
GAMG:  Solving for p_rgh, Initial residual = 0.1288238689800945, Final residual = 0.0004846279811085734, No Iterations 2
GAMG:  Solving for p_rgh, Initial residual = 0.003428854995878384, Final residual = 3.176201780456989e-05, No Iterations 6
GAMG:  Solving for p_rgh, Initial residual = 0.0002734211452735187, Final residual = 2.01805730177628e-06, No Iterations 5
GAMG:  Solving for p_rgh, Initial residual = 4.870774593320074e-05, Final residual = 1.352180215943551e-07, No Iterations 3
GAMGPCG:  Solving for p_rgh, Initial residual = 1.619020364909168e-05, Final residual = 1.837757707868861e-08, No Iterations 2
ExecutionTime = 2.06 s  ClockTime = 0 s

forces forces write:
    Sum of forces
        Total    : (0.05445237578296498 -845.1142247571873 -8.471419465376937e-22)
        Pressure : (0.05211897267555266 -845.1141512626134 0)
        Viscous  : (0.002333403107412329 -7.349457391867991e-05 -8.471419465376937e-22)
    Sum of moments
        Total    : (-162.8535111107101 -0.0104929728133806 2230.197881023095)
        Pressure : (-162.8534969483057 -0.01004332603458225 2230.197672339957)
        Viscous  : (-1.416240439412962e-05 -0.0004496467787983555 0.0002086831375441498)
    writing force and moment files.

Courant Number mean: 0.08267469080957528 max: 1.050872945458218
Interface Courant Number mean: 0.005424681514269405 max: 0.4826085153440876
deltaT = 0.001736464481986566
Time = 0.122217

PIMPLE: iteration 1
MULES: Solving for alpha.water
Phase-1 volume fraction = 0.1359688573871631  Min(alpha.water) = -1.98681541623377e-18  Max(alpha.water) = 1
MULES: Solving for alpha.water
Phase-1 volume fraction = 0.1359690746205978  Min(alpha.water) = -1.54222061865502e-18  Max(alpha.water) = 1
smoothSolver:  Solving for Ux, Initial residual = 0.004430955578513168, Final residual = 6.472783403451518e-07, No Iterations 4
smoothSolver:  Solving for Uy, Initial residual = 0.005127812160448181, Final residual = 1.358471532461384e-07, No Iterations 5
smoothSolver:  Solving for T, Initial residual = 2.76117133859864e-05, Final residual = 6.349729982104043e-10, No Iterations 2
GAMG:  Solving for p_rgh, Initial residual = 0.11117836330712, Final residual = 0.0009516098411716411, No Iterations 1
GAMG:  Solving for p_rgh, Initial residual = 0.003458530307416263, Final residual = 3.063820765751389e-05, No Iterations 6
GAMG:  Solving for p_rgh, Initial residual = 0.0003268191154811739, Final residual = 3.095572463730415e-06, No Iterations 4
GAMG:  Solving for p_rgh, Initial residual = 5.173393497421367e-05, Final residual = 2.627052130053022e-07, No Iterations 4
GAMGPCG:  Solving for p_rgh, Initial residual = 1.796395967762077e-05, Final residual = 3.407984243598193e-08, No Iterations 2
ExecutionTime = 2.06 s  ClockTime = 0 s

forces forces write:
    Sum of forces
        Total    : (0.09819247547600711 -845.201362518355 -8.504249441734476e-22)
        Pressure : (0.09581472588391549 -845.201304240094 0)
        Viscous  : (0.002377749592091629 -5.827826105219029e-05 -8.504249441734476e-22)
    Sum of moments
        Total    : (-162.8703025572871 -0.01892169002422535 2230.4435212288)
        Pressure : (-162.8702913270662 -0.01846349767782929 2230.443352917003)
        Viscous  : (-1.123022090475708e-05 -0.000458192346396057 0.0001683117969974818)
    writing force and moment files.

Courant Number mean: 0.07842949179225148 max: 1.060534493788799
Interface Courant Number mean: 0.004943733988106364 max: 0.6817494615394203
deltaT = 0.001634319512457945
Time = 0.123851

PIMPLE: iteration 1
MULES: Solving for alpha.water
Phase-1 volume fraction = 0.1359689895959771  Min(alpha.water) = -2.543976806306749e-18  Max(alpha.water) = 1
MULES: Solving for alpha.water
Phase-1 volume fraction = 0.1359691503015568  Min(alpha.water) = -5.911130806575808e-18  Max(alpha.water) = 1
smoothSolver:  Solving for Ux, Initial residual = 0.003949691380648866, Final residual = 4.520713800953703e-07, No Iterations 4
smoothSolver:  Solving for Uy, Initial residual = 0.004700499627876671, Final residual = 7.237335559173777e-07, No Iterations 4
smoothSolver:  Solving for T, Initial residual = 2.424035133372954e-05, Final residual = 4.891911408429337e-10, No Iterations 2
GAMG:  Solving for p_rgh, Initial residual = 0.104132644551902, Final residual = 0.0006155598058101045, No Iterations 1
GAMG:  Solving for p_rgh, Initial residual = 0.002291253573399029, Final residual = 2.277373865910401e-05, No Iterations 3
GAMG:  Solving for p_rgh, Initial residual = 0.0002419658449798165, Final residual = 1.605638048163551e-06, No Iterations 5
GAMG:  Solving for p_rgh, Initial residual = 4.976691593047611e-05, Final residual = 2.266390221164123e-07, No Iterations 3
GAMGPCG:  Solving for p_rgh, Initial residual = 2.093511277413058e-05, Final residual = 3.385216579272026e-08, No Iterations 2
ExecutionTime = 2.07 s  ClockTime = 0 s

forces forces write:
    Sum of forces
        Total    : (0.167163918860762 -845.3334380522764 -8.597960090377603e-22)
        Pressure : (0.1647498718353582 -845.3333986390803 0)
        Viscous  : (0.002414047025403805 -3.941319613310726e-05 -8.597960090377603e-22)
    Sum of moments
        Total    : (-162.8957535126737 -0.03221248716446935 2230.807516517661)
        Pressure : (-162.8957459177508 -0.03174730030267403 2230.807398301946)
        Viscous  : (-7.594922894849779e-06 -0.0004651868617953131 0.0001182157153908963)
    writing force and moment files.

Courant Number mean: 0.07402044942693703 max: 1.062154510486367
Interface Courant Number mean: 0.004766567832862135 max: 0.633351096215927
deltaT = 0.001538183070548654
Time = 0.125389

PIMPLE: iteration 1
MULES: Solving for alpha.water
Phase-1 volume fraction = 0.1359690430136817  Min(alpha.water) = -1.308269757473008e-18  Max(alpha.water) = 1
MULES: Solving for alpha.water
Phase-1 volume fraction = 0.1359692493912436  Min(alpha.water) = -2.104968001841722e-18  Max(alpha.water) = 1
smoothSolver:  Solving for Ux, Initial residual = 0.003617786217365149, Final residual = 3.558416476100638e-07, No Iterations 4
smoothSolver:  Solving for Uy, Initial residual = 0.004245620069061023, Final residual = 5.989745165526191e-07, No Iterations 4
smoothSolver:  Solving for T, Initial residual = 2.309608018300426e-05, Final residual = 3.989438748740663e-10, No Iterations 2
GAMG:  Solving for p_rgh, Initial residual = 0.101764465773128, Final residual = 0.0009613067243819497, No Iterations 1
GAMG:  Solving for p_rgh, Initial residual = 0.002934916612734607, Final residual = 2.820924932969695e-05, No Iterations 4
GAMG:  Solving for p_rgh, Initial residual = 0.000278611489626068, Final residual = 1.966814316238677e-06, No Iterations 5
GAMG:  Solving for p_rgh, Initial residual = 6.014362863448526e-05, Final residual = 2.689200838022446e-07, No Iterations 3
GAMGPCG:  Solving for p_rgh, Initial residual = 2.808804022849482e-05, Final residual = 7.387045228899888e-08, No Iterations 2
ExecutionTime = 2.08 s  ClockTime = 0 s

forces forces write:
    Sum of forces
        Total    : (0.2418952731155348 -845.4541880886648 -8.753060064437058e-22)
        Pressure : (0.2394521826699076 -845.4541671018088 0)
        Viscous  : (0.002443090445627184 -2.098685594703122e-05 -8.753060064437058e-22)
    Sum of moments
        Total    : (-162.9190220446857 -0.04661321912936128 2231.140561389994)
        Pressure : (-162.9190180005186 -0.04614243560048892 2231.140492185055)
        Viscous  : (-4.044167140992914e-06 -0.0004707835288723584 6.92049382952333e-05)
    writing force and moment files.

Courant Number mean: 0.0703040162015168 max: 1.055374056154342
Interface Courant Number mean: 0.00460202742570409 max: 0.5815266561339567
deltaT = 0.001447701713457557
Time = 0.126837

PIMPLE: iteration 1
MULES: Solving for alpha.water
Phase-1 volume fraction = 0.1359691849255189  Min(alpha.water) = -1.182102108885714e-18  Max(alpha.water) = 1
MULES: Solving for alpha.water
Phase-1 volume fraction = 0.135969380846565  Min(alpha.water) = -1.453120102949091e-18  Max(alpha.water) = 1
smoothSolver:  Solving for Ux, Initial residual = 0.003282530435201678, Final residual = 2.504600648813176e-07, No Iterations 4
smoothSolver:  Solving for Uy, Initial residual = 0.00394334132093751, Final residual = 4.395007060054611e-07, No Iterations 4
smoothSolver:  Solving for T, Initial residual = 2.219811346623677e-05, Final residual = 3.173187252997081e-10, No Iterations 2
GAMG:  Solving for p_rgh, Initial residual = 0.1027644212886894, Final residual = 0.0002213482699506071, No Iterations 2
GAMG:  Solving for p_rgh, Initial residual = 0.002258741468266904, Final residual = 1.253112623830684e-05, No Iterations 4
GAMG:  Solving for p_rgh, Initial residual = 0.0001746398818844336, Final residual = 1.152074728288181e-06, No Iterations 3
GAMG:  Solving for p_rgh, Initial residual = 5.711626571541534e-05, Final residual = 5.624794967532217e-07, No Iterations 2
GAMGPCG:  Solving for p_rgh, Initial residual = 1.643264768837791e-05, Final residual = 2.918892767698929e-08, No Iterations 2
ExecutionTime = 2.09 s  ClockTime = 0 s

forces forces write:
    Sum of forces
        Total    : (0.3611982716709822 -845.6374743987298 -8.993287364201774e-22)
        Pressure : (0.3587361916166607 -845.6374715661377 0)
        Viscous  : (0.00246208005432147 -2.832591985754894e-06 -8.993287364201774e-22)
    Sum of moments
        Total    : (-162.9543413166353 -0.06960290695099552 2231.640443281416)
        Pressure : (-162.9543407707948 -0.06912846412452778 2231.640422401179)
        Viscous  : (-5.458404756549632e-07 -0.0004744428264677475 2.088023720925444e-05)
    writing force and moment files.

Courant Number mean: 0.06691351064794515 max: 1.041005249903648
Interface Courant Number mean: 0.004531317584770534 max: 0.7142073092185233
deltaT = 0.001362542789136523
Time = 0.128199

PIMPLE: iteration 1
MULES: Solving for alpha.water
Phase-1 volume fraction = 0.1359693466306026  Min(alpha.water) = -2.730453202551602e-18  Max(alpha.water) = 1
MULES: Solving for alpha.water
Phase-1 volume fraction = 0.1359695238914519  Min(alpha.water) = -2.316445364320238e-18  Max(alpha.water) = 1
smoothSolver:  Solving for Ux, Initial residual = 0.003052022403665877, Final residual = 1.775968543451628e-07, No Iterations 4
smoothSolver:  Solving for Uy, Initial residual = 0.003681170382288282, Final residual = 2.75097361901873e-07, No Iterations 4
smoothSolver:  Solving for T, Initial residual = 1.992929415641245e-05, Final residual = 2.391824070560215e-10, No Iterations 2
GAMG:  Solving for p_rgh, Initial residual = 0.1012741916777521, Final residual = 0.0002022737043037145, No Iterations 2
GAMG:  Solving for p_rgh, Initial residual = 0.002358156132895831, Final residual = 8.918073032912076e-06, No Iterations 3
GAMG:  Solving for p_rgh, Initial residual = 0.0002924394143316293, Final residual = 1.256060192326078e-06, No Iterations 4
GAMG:  Solving for p_rgh, Initial residual = 0.0001114999962148344, Final residual = 3.807769268276606e-07, No Iterations 3
GAMGPCG:  Solving for p_rgh, Initial residual = 3.747109815156125e-05, Final residual = 1.395472854232247e-08, No Iterations 3
ExecutionTime = 2.1 s  ClockTime = 0 s

forces forces write:
    Sum of forces
        Total    : (0.5330821267208925 -845.8827199324501 -9.317438544737898e-22)
        Pressure : (0.530606993130764 -845.8827369622143 0)
        Viscous  : (0.002475133590128508 1.702976418361206e-05 -9.317438544737898e-22)
    Sum of moments
        Total    : (-163.0016001309832 -0.1027249258191184 2232.303164793178)
        Pressure : (-163.0016034126187 -0.1022479675763006 2232.303196869246)
        Viscous  : (3.281635558182044e-06 -0.000476958242817763 -3.207606799940192e-05)
    writing force and moment files.

Courant Number mean: 0.06355547818738529 max: 1.011734906804601
Interface Courant Number mean: 0.004543668506418393 max: 0.6475121557824981
deltaT = 0.001362542789136523
Time = 0.129562

PIMPLE: iteration 1
MULES: Solving for alpha.water
Phase-1 volume fraction = 0.1359694217969683  Min(alpha.water) = -1.145927586249033e-18  Max(alpha.water) = 1
MULES: Solving for alpha.water
Phase-1 volume fraction = 0.1359696188559281  Min(alpha.water) = -1.81520335478722e-18  Max(alpha.water) = 1
smoothSolver:  Solving for Ux, Initial residual = 0.00322720197579078, Final residual = 1.895901810907644e-07, No Iterations 4
smoothSolver:  Solving for Uy, Initial residual = 0.003668797475089754, Final residual = 3.043542436884937e-07, No Iterations 4
smoothSolver:  Solving for T, Initial residual = 1.952027619510986e-05, Final residual = 2.384100628061737e-10, No Iterations 2
GAMG:  Solving for p_rgh, Initial residual = 0.1083403191379481, Final residual = 0.0003022302580191064, No Iterations 2
GAMG:  Solving for p_rgh, Initial residual = 0.003833953875555842, Final residual = 1.959999769910016e-05, No Iterations 3
GAMG:  Solving for p_rgh, Initial residual = 0.0006141177100454377, Final residual = 3.442287113542608e-06, No Iterations 3
GAMG:  Solving for p_rgh, Initial residual = 0.0002741970505411841, Final residual = 2.180405863969383e-06, No Iterations 2
GAMGPCG:  Solving for p_rgh, Initial residual = 9.428774000329436e-05, Final residual = 2.77615897316526e-08, No Iterations 3
ExecutionTime = 2.11 s  ClockTime = 0 s

forces forces write:
    Sum of forces
        Total    : (0.6587910685465743 -846.0548700779943 -9.694615211900711e-22)
        Pressure : (0.6563041418840836 -846.0549077838185 0)
        Viscous  : (0.002486926662490767 3.770582422706618e-05 -9.694615211900711e-22)
    Sum of moments
        Total    : (-163.0347734640295 -0.1269490389089264 2232.771221958416)
        Pressure : (-163.0347807299418 -0.1264698081410645 2232.771309293525)
        Viscous  : (7.265912328555644e-06 -0.0004792307678619709 -8.733510859671973e-05)
    writing force and moment files.

Courant Number mean: 0.06400645176858863 max: 1.034643774948175
Interface Courant Number mean: 0.004223861261528447 max: 0.6179648606359391
deltaT = 0.00127738386481549
Time = 0.130839

PIMPLE: iteration 1
MULES: Solving for alpha.water
Phase-1 volume fraction = 0.1359695552264305  Min(alpha.water) = -2.584906912628659e-18  Max(alpha.water) = 1
MULES: Solving for alpha.water
Phase-1 volume fraction = 0.1359697387382451  Min(alpha.water) = -1.558960366361033e-18  Max(alpha.water) = 1
smoothSolver:  Solving for Ux, Initial residual = 0.003077233601574434, Final residual = 1.383246733202711e-07, No Iterations 4
smoothSolver:  Solving for Uy, Initial residual = 0.003876499451087661, Final residual = 2.195861889385844e-07, No Iterations 4
smoothSolver:  Solving for T, Initial residual = 2.009923710387796e-05, Final residual = 1.763278164498768e-10, No Iterations 2
GAMG:  Solving for p_rgh, Initial residual = 0.1045812638087209, Final residual = 0.0002730978367988894, No Iterations 2
GAMG:  Solving for p_rgh, Initial residual = 0.003554046287079218, Final residual = 1.317720574346852e-05, No Iterations 3
GAMG:  Solving for p_rgh, Initial residual = 0.0006757842658297832, Final residual = 2.924918547065183e-06, No Iterations 3
GAMG:  Solving for p_rgh, Initial residual = 0.0001636151615201972, Final residual = 1.393421729830631e-06, No Iterations 2
GAMGPCG:  Solving for p_rgh, Initial residual = 4.166104889576611e-05, Final residual = 1.321015075339959e-08, No Iterations 3
ExecutionTime = 2.12 s  ClockTime = 0 s

forces forces write:
    Sum of forces
        Total    : (1.072802244910576 -846.4935828250992 -1.021773324762631e-21)
        Pressure : (1.070322167525399 -846.493646237506 0)
        Viscous  : (0.002480077385177312 6.341240675698889e-05 -1.021773324762631e-21)
    Sum of moments
        Total    : (-163.1193134103966 -0.206728992594264 2233.948527352926)
[...]
GAMG:  Solving for p_rgh, Initial residual = 0.0003498784803056449, Final residual = 3.060268085546992e-06, No Iterations 24
GAMG:  Solving for p_rgh, Initial residual = 6.742349669503042e-05, Final residual = 6.013082760979757e-07, No Iterations 12
GAMGPCG:  Solving for p_rgh, Initial residual = 1.795533960428971e-05, Final residual = 5.44116332433276e-08, No Iterations 3
ExecutionTime = 3.63 s  ClockTime = 2 s

forces forces write:
    Sum of forces
        Total    : (0.1488069090532705 -815.1346890845011 -1.992370407476446e-21)
        Pressure : (0.1480235414622975 -815.1347908906057 0)
        Viscous  : (0.0007833675909730161 0.0001018061045471851 -1.992370407476446e-21)
    Sum of moments
        Total    : (-157.0764545865835 -0.02867509137456619 2150.01348991938)
        Pressure : (-157.0764742046198 -0.02852413643978569 2150.013756290125)
        Viscous  : (1.961803634624255e-05 -0.0001509549347805002 -0.0002663707449628412)
    writing force and moment files.

Courant Number mean: 0.1432902789745279 max: 0.9717406181152436
Interface Courant Number mean: 0.00869660162667015 max: 0.3051271244437875
deltaT = 0.001552000361528139
Time = 0.386032

PIMPLE: iteration 1
MULES: Solving for alpha.water
Phase-1 volume fraction = 0.1358708978992564  Min(alpha.water) = -6.892200193354752e-19  Max(alpha.water) = 1
MULES: Solving for alpha.water
Phase-1 volume fraction = 0.1358708813642828  Min(alpha.water) = -1.3783702569507e-18  Max(alpha.water) = 1
smoothSolver:  Solving for Ux, Initial residual = 0.007206840479178107, Final residual = 5.977558678169637e-07, No Iterations 3
smoothSolver:  Solving for Uy, Initial residual = 0.01941914317990237, Final residual = 3.676535607831778e-07, No Iterations 4
smoothSolver:  Solving for T, Initial residual = 3.707181011981282e-05, Final residual = 2.802386840784917e-10, No Iterations 2
GAMG:  Solving for p_rgh, Initial residual = 0.04984144446113737, Final residual = 0.0004506288237915463, No Iterations 7
GAMG:  Solving for p_rgh, Initial residual = 0.002450617810387063, Final residual = 2.358436643468526e-05, No Iterations 32
GAMG:  Solving for p_rgh, Initial residual = 0.0001738276286471549, Final residual = 1.561050851332659e-06, No Iterations 28
GAMG:  Solving for p_rgh, Initial residual = 2.494349864411622e-05, Final residual = 2.425115766637644e-07, No Iterations 14
GAMGPCG:  Solving for p_rgh, Initial residual = 5.703853993660558e-06, Final residual = 2.063889160983818e-08, No Iterations 3
ExecutionTime = 3.65 s  ClockTime = 2 s

forces forces write:
    Sum of forces
        Total    : (-0.00831003428939267 -816.0129631681041 -1.901112844503272e-21)
        Pressure : (-0.009085700541181296 -816.0130648643927 0)
        Viscous  : (0.0007756662517886258 0.0001016962886929676 -1.901112844503272e-21)
    Sum of moments
        Total    : (-157.2456980024936 0.001601343607567821 2152.162801935901)
        Pressure : (-157.2457175993685 0.001750814494287489 2152.163067922511)
        Viscous  : (1.959687483113485e-05 -0.0001494708867196683 -0.0002659866098537035)
    writing force and moment files.

Courant Number mean: 0.1416940691055845 max: 0.9472322527159756
Interface Courant Number mean: 0.008666800300111721 max: 0.3563444377480121
deltaT = 0.001552000361528139
Time = 0.387584

PIMPLE: iteration 1
MULES: Solving for alpha.water
Phase-1 volume fraction = 0.1358708538067818  Min(alpha.water) = -1.98297180047677e-19  Max(alpha.water) = 1
MULES: Solving for alpha.water
Phase-1 volume fraction = 0.1358708730983932  Min(alpha.water) = -5.186713303747725e-19  Max(alpha.water) = 1
smoothSolver:  Solving for Ux, Initial residual = 0.008058548329272702, Final residual = 5.906778670671422e-07, No Iterations 3
smoothSolver:  Solving for Uy, Initial residual = 0.02520192421076912, Final residual = 3.501386152516621e-07, No Iterations 4
smoothSolver:  Solving for T, Initial residual = 3.728384115079326e-05, Final residual = 2.219682159798699e-10, No Iterations 2
GAMG:  Solving for p_rgh, Initial residual = 0.04797667910931517, Final residual = 0.0003182155114859061, No Iterations 5
GAMG:  Solving for p_rgh, Initial residual = 0.002440878848866628, Final residual = 2.193423868738827e-05, No Iterations 30
GAMG:  Solving for p_rgh, Initial residual = 0.0001825279918222828, Final residual = 1.646918302983478e-06, No Iterations 28
GAMG:  Solving for p_rgh, Initial residual = 3.011867826881179e-05, Final residual = 2.809624436027519e-07, No Iterations 14
GAMGPCG:  Solving for p_rgh, Initial residual = 7.672026234118529e-06, Final residual = 1.197537865687369e-08, No Iterations 3
ExecutionTime = 3.66 s  ClockTime = 2 s

forces forces write:
    Sum of forces
        Total    : (-0.1079187207300478 -816.519851747508 -1.809137787144076e-21)
        Pressure : (-0.1086851484908173 -816.5199532513384 0)
        Viscous  : (0.0007664277607695117 0.0001015038303249098 -1.809137787144076e-21)
    Sum of moments
        Total    : (-157.3433754317448 0.02079593748468076 2153.39217301989)
        Pressure : (-157.3433949915329 0.02094362811418105 2153.392438389942)
        Viscous  : (1.955978810361012e-05 -0.0001476906295002851 -0.0002653700515420327)
    writing force and moment files.

Courant Number mean: 0.1404633876825734 max: 0.9253779108780031
Interface Courant Number mean: 0.008563005417174814 max: 0.3371018763745321
deltaT = 0.001773714698889301
Time = 0.389358

PIMPLE: iteration 1
MULES: Solving for alpha.water
Phase-1 volume fraction = 0.1358708477985439  Min(alpha.water) = -3.644745896213447e-19  Max(alpha.water) = 1
MULES: Solving for alpha.water
Phase-1 volume fraction = 0.1358709191584861  Min(alpha.water) = -4.488267437482104e-19  Max(alpha.water) = 1
smoothSolver:  Solving for Ux, Initial residual = 0.00970102088338121, Final residual = 9.353321939617953e-07, No Iterations 3
smoothSolver:  Solving for Uy, Initial residual = 0.03270383762052639, Final residual = 6.531693241981957e-07, No Iterations 4
smoothSolver:  Solving for T, Initial residual = 4.149454042365617e-05, Final residual = 3.018299310609497e-10, No Iterations 2
GAMG:  Solving for p_rgh, Initial residual = 0.0595132255412934, Final residual = 0.0003339873327383496, No Iterations 2
GAMG:  Solving for p_rgh, Initial residual = 0.003548799163255246, Final residual = 3.123855637354278e-05, No Iterations 7
GAMG:  Solving for p_rgh, Initial residual = 0.0003736707679751727, Final residual = 3.315022703256722e-06, No Iterations 30
GAMG:  Solving for p_rgh, Initial residual = 7.117806208854421e-05, Final residual = 6.533000285371042e-07, No Iterations 16
GAMGPCG:  Solving for p_rgh, Initial residual = 2.079042159509913e-05, Final residual = 6.79782237911058e-08, No Iterations 3
ExecutionTime = 3.68 s  ClockTime = 2 s

forces forces write:
    Sum of forces
        Total    : (-0.1446184561117062 -816.5808392728518 -1.715688759185097e-21)
        Pressure : (-0.1453731398636933 -816.5809405169991 0)
        Viscous  : (0.0007546837519870943 0.0001012441473425262 -1.715688759185097e-21)
    Sum of moments
        Total    : (-157.3551277278785 0.02786797649272445 2153.513193369048)
        Pressure : (-157.3551472376257 0.02801340405173236 2153.513457923889)
        Viscous  : (1.950974719290479e-05 -0.0001454275590079129 -0.0002645548416066794)
    writing force and moment files.

Courant Number mean: 0.1592400445588813 max: 1.027533661058218
Interface Courant Number mean: 0.009808117793223188 max: 0.3598318860876966
deltaT = 0.001773714698889299
Time = 0.391131

PIMPLE: iteration 1
MULES: Solving for alpha.water
Phase-1 volume fraction = 0.1358708903216796  Min(alpha.water) = -6.485688315091403e-19  Max(alpha.water) = 1
MULES: Solving for alpha.water
Phase-1 volume fraction = 0.1358710553288988  Min(alpha.water) = -2.067679336570787e-18  Max(alpha.water) = 1
smoothSolver:  Solving for Ux, Initial residual = 0.009570173131001922, Final residual = 9.714026409301461e-07, No Iterations 3
smoothSolver:  Solving for Uy, Initial residual = 0.03332797482645594, Final residual = 7.311853017294937e-07, No Iterations 4
smoothSolver:  Solving for T, Initial residual = 4.093193910711249e-05, Final residual = 2.582404924003758e-10, No Iterations 2
GAMG:  Solving for p_rgh, Initial residual = 0.06597502269112164, Final residual = 0.0004172909901339474, No Iterations 2
GAMG:  Solving for p_rgh, Initial residual = 0.004211336042224584, Final residual = 3.683295827513622e-05, No Iterations 10
GAMG:  Solving for p_rgh, Initial residual = 0.0004806725110308377, Final residual = 4.499661218360792e-06, No Iterations 28
GAMG:  Solving for p_rgh, Initial residual = 9.618192607752665e-05, Final residual = 9.497782055966903e-07, No Iterations 16
GAMGPCG:  Solving for p_rgh, Initial residual = 2.824458795894531e-05, Final residual = 1.315021394186558e-08, No Iterations 4
ExecutionTime = 3.69 s  ClockTime = 2 s

forces forces write:
    Sum of forces
        Total    : (-0.1033351546677012 -816.1036296329884 -1.640158849463236e-21)
        Pressure : (-0.1040792752087363 -816.1037303980891 0)
        Viscous  : (0.000744120541035049 0.0001007651006622294 -1.640158849463236e-21)
    Sum of moments
        Total    : (-157.2631694302769 0.01991268430446765 2152.302030676207)
        Pressure : (-157.2631888477117 0.0200560763327251 2152.302293849242)
        Viscous  : (1.94174348976116e-05 -0.0001433920282574539 -0.0002631730349417803)
    writing force and moment files.

Courant Number mean: 0.1577231401058125 max: 0.9975948280281892
Interface Courant Number mean: 0.009915477738103815 max: 0.3363572929882256
deltaT = 0.001773714698889295
Time = 0.392905

PIMPLE: iteration 1
MULES: Solving for alpha.water
Phase-1 volume fraction = 0.1358709537074788  Min(alpha.water) = -9.329166974290888e-19  Max(alpha.water) = 1
MULES: Solving for alpha.water
Phase-1 volume fraction = 0.1358711220382295  Min(alpha.water) = -7.827654556096954e-19  Max(alpha.water) = 1
smoothSolver:  Solving for Ux, Initial residual = 0.009040564601207885, Final residual = 8.500248674530382e-07, No Iterations 3
smoothSolver:  Solving for Uy, Initial residual = 0.03049006091753175, Final residual = 7.098073090717513e-07, No Iterations 4
smoothSolver:  Solving for T, Initial residual = 4.026995024276233e-05, Final residual = 2.393317313931079e-10, No Iterations 2
GAMG:  Solving for p_rgh, Initial residual = 0.06908353737090178, Final residual = 0.0004228691878157452, No Iterations 4
GAMG:  Solving for p_rgh, Initial residual = 0.004517329091007942, Final residual = 4.25970309854747e-05, No Iterations 16
GAMG:  Solving for p_rgh, Initial residual = 0.0005214085014721142, Final residual = 5.146250129368975e-06, No Iterations 28
GAMG:  Solving for p_rgh, Initial residual = 0.0001001656075241987, Final residual = 9.344883385942312e-07, No Iterations 18
GAMGPCG:  Solving for p_rgh, Initial residual = 2.734040278593356e-05, Final residual = 1.285939263204882e-08, No Iterations 4
ExecutionTime = 3.71 s  ClockTime = 2 s

forces forces write:
    Sum of forces
        Total    : (0.01060420656695363 -815.1294418261259 -1.589920393493454e-21)
        Pressure : (0.009869174007263837 -815.1295419158936 0)
        Viscous  : (0.0007350325596897937 0.0001000897676789343 -1.589920393493454e-21)
    Sum of moments
        Total    : (-157.0754434398945 -0.002043430605452153 2149.858290938429)
        Pressure : (-157.0754627271927 -0.001901789831199929 2149.85855224579)
        Viscous  : (1.928729823173064e-05 -0.0001416407742522233 -0.0002613073614245334)
    writing force and moment files.

Courant Number mean: 0.1562751043329676 max: 0.9690718535201064
Interface Courant Number mean: 0.009585124709502945 max: 0.3149814046942762
deltaT = 0.001773714698889289
Time = 0.394679

PIMPLE: iteration 1
MULES: Solving for alpha.water
Phase-1 volume fraction = 0.1358709871767773  Min(alpha.water) = -3.386490776297815e-19  Max(alpha.water) = 1
MULES: Solving for alpha.water
Phase-1 volume fraction = 0.1358711293169306  Min(alpha.water) = -1.443791621935505e-18  Max(alpha.water) = 1
smoothSolver:  Solving for Ux, Initial residual = 0.00806053245271772, Final residual = 7.20659870401838e-07, No Iterations 3
smoothSolver:  Solving for Uy, Initial residual = 0.02497808397584142, Final residual = 6.058405711648466e-07, No Iterations 4
smoothSolver:  Solving for T, Initial residual = 4.040623713489723e-05, Final residual = 2.555756100550072e-10, No Iterations 2
GAMG:  Solving for p_rgh, Initial residual = 0.06374738512404221, Final residual = 0.0003978390602379398, No Iterations 6
GAMG:  Solving for p_rgh, Initial residual = 0.003897663875816128, Final residual = 3.622653876428623e-05, No Iterations 30
GAMG:  Solving for p_rgh, Initial residual = 0.0003675091836189958, Final residual = 3.51377512914092e-06, No Iterations 30
GAMG:  Solving for p_rgh, Initial residual = 6.546048886779625e-05, Final residual = 5.817590765062343e-07, No Iterations 16
GAMGPCG:  Solving for p_rgh, Initial residual = 1.545593001258805e-05, Final residual = 5.877717837568957e-08, No Iterations 3
ExecutionTime = 3.72 s  ClockTime = 2 s

forces forces write:
    Sum of forces
        Total    : (0.1711997685197842 -813.8231820168417 -1.568415323276483e-21)
        Pressure : (0.1704719324219806 -813.8232812092863 0)
        Viscous  : (0.0007278360978036926 9.919244460192305e-05 -1.568415323276483e-21)
    Sum of moments
        Total    : (-156.8237271746454 -0.03299019539376268 2146.59057224872)
        Pressure : (-156.8237462890295 -0.03284994137771591 2146.590831154557)
        Viscous  : (1.911438407479057e-05 -0.0001402540160467717 -0.0002589058361049449)
    writing force and moment files.

Courant Number mean: 0.1548589808835385 max: 0.9432741825908377
Interface Courant Number mean: 0.009865469365929141 max: 0.3797169102948822
deltaT = 0.00177371469888928
Time = 0.396453

PIMPLE: iteration 1
MULES: Solving for alpha.water
Phase-1 volume fraction = 0.1358709941797411  Min(alpha.water) = -1.275425810807784e-18  Max(alpha.water) = 1
MULES: Solving for alpha.water
Phase-1 volume fraction = 0.1358711305332097  Min(alpha.water) = -7.858898464315048e-19  Max(alpha.water) = 1
smoothSolver:  Solving for Ux, Initial residual = 0.006921838271607004, Final residual = 6.974145585437863e-07, No Iterations 3
smoothSolver:  Solving for Uy, Initial residual = 0.01780407414220094, Final residual = 5.701355806794617e-07, No Iterations 4
smoothSolver:  Solving for T, Initial residual = 3.991725081795075e-05, Final residual = 2.614165731050663e-10, No Iterations 2
GAMG:  Solving for p_rgh, Initial residual = 0.06204881275060886, Final residual = 0.000617576907710481, No Iterations 5
GAMG:  Solving for p_rgh, Initial residual = 0.003273489475920111, Final residual = 2.980362493138701e-05, No Iterations 35
GAMG:  Solving for p_rgh, Initial residual = 0.0002359284183421653, Final residual = 2.073373224823727e-06, No Iterations 34
GAMG:  Solving for p_rgh, Initial residual = 3.775129137076845e-05, Final residual = 3.688446167929897e-07, No Iterations 10
GAMGPCG:  Solving for p_rgh, Initial residual = 9.122865230252665e-06, Final residual = 2.743701413931418e-08, No Iterations 3
ExecutionTime = 3.74 s  ClockTime = 2 s

forces forces write:
    Sum of forces
        Total    : (0.3434381403846459 -812.4361694844306 -1.573515939047593e-21)
        Pressure : (0.3427153348201202 -812.436267520028 0)
        Viscous  : (0.0007228055645257217 9.803559736362972e-05 -1.573515939047593e-21)
    Sum of moments
        Total    : (-156.5564498596498 -0.06618052965212365 2143.123550768557)
        Pressure : (-156.5564687511094 -0.06604124501983955 2143.123806640738)
        Viscous  : (1.889145961197145e-05 -0.0001392846322841065 -0.0002558721807331013)
    writing force and moment files.

Courant Number mean: 0.153437690600773 max: 0.9173602231774509
Interface Courant Number mean: 0.01019177304128441 max: 0.3685280237326536
deltaT = 0.001773714698889289
Time = 0.398226

PIMPLE: iteration 1
MULES: Solving for alpha.water
Phase-1 volume fraction = 0.1358709686142031  Min(alpha.water) = -2.936039945531968e-19  Max(alpha.water) = 1
MULES: Solving for alpha.water
Phase-1 volume fraction = 0.1358711002107688  Min(alpha.water) = -2.475187265749988e-19  Max(alpha.water) = 1
smoothSolver:  Solving for Ux, Initial residual = 0.005755987958115592, Final residual = 6.638222894215328e-07, No Iterations 3
smoothSolver:  Solving for Uy, Initial residual = 0.01181255653681188, Final residual = 6.703146661492673e-07, No Iterations 4
smoothSolver:  Solving for T, Initial residual = 3.825496217993985e-05, Final residual = 2.690431255951347e-10, No Iterations 2
GAMG:  Solving for p_rgh, Initial residual = 0.0652696925180454, Final residual = 0.0006481252393071937, No Iterations 4
GAMG:  Solving for p_rgh, Initial residual = 0.003756021256102686, Final residual = 3.342623611936411e-05, No Iterations 36
GAMG:  Solving for p_rgh, Initial residual = 0.0003150865220335948, Final residual = 3.052835166665099e-06, No Iterations 30
GAMG:  Solving for p_rgh, Initial residual = 6.025261933551262e-05, Final residual = 5.927660547186242e-07, No Iterations 10
GAMGPCG:  Solving for p_rgh, Initial residual = 1.719367271246769e-05, Final residual = 5.629012529026732e-08, No Iterations 3
ExecutionTime = 3.76 s  ClockTime = 2 s

forces forces write:
    Sum of forces
        Total    : (0.5151804360978846 -811.0406530927346 -1.603989257622078e-21)
        Pressure : (0.5144602098792852 -811.0407497182207 0)
        Viscous  : (0.000720226218599405 9.662548605481332e-05 -1.603989257622078e-21)
    Sum of moments
        Total    : (-156.28753385097 -0.09927527003606118 2139.63542644076)
        Pressure : (-156.2875524707011 -0.09913648244373707 2139.635678657262)
        Viscous  : (1.861973116276252e-05 -0.0001387875923241053 -0.0002522165022329514)
    writing force and moment files.

Courant Number mean: 0.1519188516444603 max: 0.8920278032994671
Interface Courant Number mean: 0.01000210667218109 max: 0.3558311115479114
deltaT = 0.001773714698889317
Time = 0.4

PIMPLE: iteration 1
MULES: Solving for alpha.water
Phase-1 volume fraction = 0.1358709472131427  Min(alpha.water) = -6.267840728059108e-19  Max(alpha.water) = 1
MULES: Solving for alpha.water
Phase-1 volume fraction = 0.1358710751957219  Min(alpha.water) = -5.401672574140828e-19  Max(alpha.water) = 1
smoothSolver:  Solving for Ux, Initial residual = 0.005023201105488667, Final residual = 6.834430089064383e-07, No Iterations 3
smoothSolver:  Solving for Uy, Initial residual = 0.0139585605416067, Final residual = 8.274773182937464e-07, No Iterations 4
smoothSolver:  Solving for T, Initial residual = 3.703623402591049e-05, Final residual = 2.791502406725525e-10, No Iterations 2
GAMG:  Solving for p_rgh, Initial residual = 0.065734868319276, Final residual = 0.0006390776605293108, No Iterations 4
GAMG:  Solving for p_rgh, Initial residual = 0.004080686088316329, Final residual = 3.702764631168424e-05, No Iterations 32
GAMG:  Solving for p_rgh, Initial residual = 0.0003856139670673106, Final residual = 3.662194315440499e-06, No Iterations 30
GAMG:  Solving for p_rgh, Initial residual = 8.341683575784622e-05, Final residual = 7.214922925316177e-07, No Iterations 10
GAMGPCG:  Solving for p_rgh, Initial residual = 2.496248338518433e-05, Final residual = 3.481389901101894e-08, No Iterations 3
ExecutionTime = 3.78 s  ClockTime = 2 s

forces forces write:
    Sum of forces
        Total    : (0.6597024991792564 -809.8391420031377 -1.657455493296295e-21)
        Pressure : (0.6589832607396939 -809.839236963029 0)
        Viscous  : (0.0007192384395624443 9.495989128755893e-05 -1.657455493296295e-21)
    Sum of moments
        Total    : (-156.0560026640047 -0.1271246715918429 2136.628753523594)
        Pressure : (-156.0560209627757 -0.1269860743445392 2136.629001457228)
        Viscous  : (1.829877105111261e-05 -0.0001385972473036831 -0.000247933633650138)
    writing force and moment files.

End

