/*---------------------------------------------------------------------------*\
| =========                 |                                                 |
| \\      /  F ield         | OpenFOAM: The Open Source CFD Toolbox           |
|  \\    /   O peration     | Version:  2206                                  |
|   \\  /    A nd           | Website:  www.openfoam.com                      |
|    \\/     M anipulation  |                                                 |
\*---------------------------------------------------------------------------*/
Build  : _76d719d1e6-20220624 OPENFOAM=2206 version=v2206
Arch   : "LSB;label=32;scalar=64"
Exec   : blockMesh
Date   : Oct 28 2022
Time   : 19:51:02
Host   : henning-Yoga-Slim-7-Pro-14IAP7
PID    : 62452
I/O    : uncollated
Case   : /home/henning/libsAndApps/pybFoam/testsuite/test-postProcess
nProcs : 1
trapFpe: Floating point exception trapping enabled (FOAM_SIGFPE).
fileModificationChecking : Monitoring run-time modified files using timeStampMaster (fileModificationSkew 5, maxFileModificationPolls 20)
allowSystemOperations : Allowing user-supplied system call operations

// * * * * * * * * * * * * * * * * * * * * * * * * * * * * * * * * * * * * * //
Create time

Creating block mesh from "system/blockMeshDict"
--> FOAM IOWarning :
    Found [v1012] 'convertToMeters' entry instead of 'scale' in dictionary "system/blockMeshDict"

    This keyword is 138 months old.

Creating block edges
No non-planar block faces defined
Creating topology blocks

Creating topology patches - from boundary section

Creating block mesh topology - scaling/transform applied later
--> FOAM Warning : 
    From Foam::polyMesh::polyMesh(const Foam::IOobject&, Foam::pointField&&, const cellShapeList&, const faceListList&, const wordList&, const Foam::PtrList<Foam::dictionary>&, const Foam::word&, const Foam::word&, bool)
    in file meshes/polyMesh/polyMeshFromShapeMesh.C at line 920
    Found 10 undefined faces in mesh; adding to default patch defaultFaces

Check topology

	Basic statistics
		Number of internal faces : 4
		Number of boundary faces : 22
		Number of defined boundary faces : 22
		Number of undefined boundary faces : 0
	Checking patch -> block consistency

Creating block offsets
Creating merge list (topological search)...

Creating polyMesh from blockMesh
Creating patches
Creating cells
Creating points with scale (0.146 0.146 0.146)
    Block 0 cell size :
        i : 0.01269565217391304 .. 0.012695652173913
        j : 0.005999869999999999 .. 0.005999869999999998
        k : 0.0146 .. 0.0146

    Block 1 cell size :
        i : 0.0141052905263158 .. 0.01410529052631586
        j : 0.005999869999999999 .. 0.005999869999999998
        k : 0.0146 .. 0.0146

    Block 2 cell size :
        i : 0.01269565217391304 .. 0.012695652173913
        j : 0.01276192952380953 .. 0.01276192952380952
        k : 0.0146 .. 0.0146

    Block 3 cell size :
        i : 0.005999869999999983 .. 0.005999869999999983
        j : 0.01276192952380953 .. 0.01276192952380952
        k : 0.0146 .. 0.0146

    Block 4 cell size :
        i : 0.0141052905263158 .. 0.01410529052631586
        j : 0.01276192952380953 .. 0.01276192952380952
        k : 0.0146 .. 0.0146


There are no merge patch pairs

Writing polyMesh with 0 cellZones
----------------
Mesh Information
----------------
  boundingBox: (0 0 0) (0.5840000000000001 0.584 0.0146)
  nPoints: 4746
  nCells: 2268
  nFaces: 9176
  nInternalFaces: 4432
----------------
Patches
----------------
  patch 0 (start: 4432 size: 50) name: leftWall
  patch 1 (start: 4482 size: 50) name: rightWall
  patch 2 (start: 4532 size: 62) name: lowerWall
  patch 3 (start: 4594 size: 46) name: atmosphere
  patch 4 (start: 4640 size: 4536) name: defaultFaces

End

