/*---------------------------------------------------------------------------*\
| =========                 |                                                 |
| \\      /  F ield         | OpenFOAM: The Open Source CFD Toolbox           |
|  \\    /   O peration     | Version:  2112                                  |
|   \\  /    A nd           | Website:  www.openfoam.com                      |
|    \\/     M anipulation  |                                                 |
\*---------------------------------------------------------------------------*/
Build  : 90034fe6-20220502 OPENFOAM=2112 version=v2112
Arch   : "LSB;label=32;scalar=64"
Exec   : setFields
Date   : Sep 05 2022
Time   : 18:07:48
Host   : henning-AB350M-HD3
PID    : 73725
I/O    : uncollated
Case   : /media/henning/ssd1linux/libsAndApps/release/ECI4FOAM/src/embeddingPython/pybind11/libs
nProcs : 1
trapFpe: Floating point exception trapping enabled (FOAM_SIGFPE).
fileModificationChecking : Monitoring run-time modified files using timeStampMaster (fileModificationSkew 5, maxFileModificationPolls 20)
allowSystemOperations : Allowing user-supplied system call operations

// * * * * * * * * * * * * * * * * * * * * * * * * * * * * * * * * * * * * * //
Create time

Create mesh for time = 0

Reading setFieldsDict

Setting field default values
    Setting internal values of volScalarField alpha.water

Setting field region values
    Adding cells with centre within boxes 1((0 0 -1) (0.1461 0.292 1))
    Setting internal values of volScalarField alpha.water

End

