/*---------------------------------------------------------------------------*\
| =========                 |                                                 |
| \\      /  F ield         | OpenFOAM: The Open Source CFD Toolbox           |
|  \\    /   O peration     | Version:  2112                                  |
|   \\  /    A nd           | Website:  www.openfoam.com                      |
|    \\/     M anipulation  |                                                 |
\*---------------------------------------------------------------------------*/
Build  : 90034fe6-20220502 OPENFOAM=2112 version=v2112
Arch   : "LSB;label=32;scalar=64"
Exec   : blockMesh
Date   : Sep 05 2022
Time   : 18:07:48
Host   : henning-AB350M-HD3
PID    : 73724
I/O    : uncollated
Case   : /media/henning/ssd1linux/libsAndApps/release/ECI4FOAM/src/embeddingPython/pybind11/libs
nProcs : 1
trapFpe: Floating point exception trapping enabled (FOAM_SIGFPE).
fileModificationChecking : Monitoring run-time modified files using timeStampMaster (fileModificationSkew 5, maxFileModificationPolls 20)
allowSystemOperations : Allowing user-supplied system call operations

// * * * * * * * * * * * * * * * * * * * * * * * * * * * * * * * * * * * * * //
Create time

Creating block mesh from "system/blockMeshDict"
Creating block edges
No non-planar block faces defined
Creating topology blocks

Creating topology patches - from boundary section

Creating block mesh topology - scaling/transform applied later
--> FOAM Warning : 
    From Foam::polyMesh::polyMesh(const Foam::IOobject&, Foam::pointField&&, const cellShapeList&, const faceListList&, const wordList&, const Foam::PtrList<Foam::dictionary>&, const Foam::word&, const Foam::word&, bool)
    in file meshes/polyMesh/polyMeshFromShapeMesh.C at line 920
    Found 10 undefined faces in mesh; adding to default patch defaultFaces

Check topology

	Basic statistics
		Number of internal faces : 4
		Number of boundary faces : 22
		Number of defined boundary faces : 22
		Number of undefined boundary faces : 0
	Checking patch -> block consistency

Creating block offsets
Creating merge list (topological search)...

Creating polyMesh from blockMesh
Creating patches
Creating cells
Creating points with scale (0.146 0.146 0.146)
    Block 0 cell size :
        i : 0.00634783 .. 0.00634783
        j : 0.00299993 .. 0.00299993
        k : 0.0146 .. 0.0146

    Block 1 cell size :
        i : 0.00705265 .. 0.00705265
        j : 0.00299993 .. 0.00299993
        k : 0.0146 .. 0.0146

    Block 2 cell size :
        i : 0.00634783 .. 0.00634783
        j : 0.00638096 .. 0.00638096
        k : 0.0146 .. 0.0146

    Block 3 cell size :
        i : 0.00299994 .. 0.00299994
        j : 0.00638096 .. 0.00638096
        k : 0.0146 .. 0.0146

    Block 4 cell size :
        i : 0.00705265 .. 0.00705265
        j : 0.00638096 .. 0.00638096
        k : 0.0146 .. 0.0146


There are no merge patch pairs

Writing polyMesh with 0 cellZones
----------------
Mesh Information
----------------
  boundingBox: (0 0 0) (0.584 0.584 0.0146)
  nPoints: 18562
  nCells: 9072
  nFaces: 36496
  nInternalFaces: 17936
----------------
Patches
----------------
  patch 0 (start: 17936 size: 100) name: leftWall
  patch 1 (start: 18036 size: 100) name: rightWall
  patch 2 (start: 18136 size: 124) name: lowerWall
  patch 3 (start: 18260 size: 92) name: atmosphere
  patch 4 (start: 18352 size: 18144) name: defaultFaces

End

