/*---------------------------------------------------------------------------*\
| =========                 |                                                 |
| \\      /  F ield         | OpenFOAM: The Open Source CFD Toolbox           |
|  \\    /   O peration     | Version:  2406                                  |
|   \\  /    A nd           | Website:  www.openfoam.com                      |
|    \\/     M anipulation  |                                                 |
\*---------------------------------------------------------------------------*/
Build  : _630d60de3b-20240620 OPENFOAM=2406 version=v2406
Arch   : "LSB;label=32;scalar=64"
Exec   : icoFoam -parallel
Date   : Aug 04 2025
Time   : 20:40:12
Host   : henning-MS-7E26
PID    : 27316
I/O    : uncollated
Case   : /home/henning/libsAndApps/pybFoam/tests/cavity
nProcs : 4
Hosts  :
(
    (henning-MS-7E26 4)
)
Pstream initialized with:
    floatTransfer      : false
    maxCommsSize       : 0
    nProcsSimpleSum    : 0
    nonBlockingExchange: 0 (tuning: 0)
    exchange algorithm : 0
    commsType          : nonBlocking
    polling iterations : 0
trapFpe: Floating point exception trapping enabled (FOAM_SIGFPE).
fileModificationChecking : Monitoring run-time modified files using timeStampMaster (fileModificationSkew 5, maxFileModificationPolls 20)
allowSystemOperations : Allowing user-supplied system call operations

// * * * * * * * * * * * * * * * * * * * * * * * * * * * * * * * * * * * * * //
Create time

Create mesh for time = 0


PISO: Operating solver in PISO mode

Reading transportProperties

Reading field p

Reading field U

Reading/calculating face flux field phi


Starting time loop

Time = 0.0005

Courant Number mean: 0 max: 0
smoothSolver:  Solving for Ux, Initial residual = 1, Final residual = 8.90951e-06, No Iterations 45
smoothSolver:  Solving for Uy, Initial residual = 0, Final residual = 0, No Iterations 10
DICPCG:  Solving for p, Initial residual = 1, Final residual = 0.0460705, No Iterations 70
time step continuity errors : sum local = 1.16285e-05, global = -5.9557e-21, cumulative = -5.9557e-21
DICPCG:  Solving for p, Initial residual = 0.704565, Final residual = 9.657e-07, No Iterations 194
time step continuity errors : sum local = 3.04612e-10, global = 6.13073e-21, cumulative = 1.75033e-22
ExecutionTime = 0.02 s  ClockTime = 0 s

Time = 0.001

Courant Number mean: 0.0221422 max: 0.378843
smoothSolver:  Solving for Ux, Initial residual = 0.139519, Final residual = 9.60936e-06, No Iterations 47
smoothSolver:  Solving for Uy, Initial residual = 0.346192, Final residual = 8.92614e-06, No Iterations 53
DICPCG:  Solving for p, Initial residual = 0.665481, Final residual = 0.030278, No Iterations 108
time step continuity errors : sum local = 1.18107e-05, global = -1.75362e-20, cumulative = -1.73612e-20
DICPCG:  Solving for p, Initial residual = 0.540777, Final residual = 9.33705e-07, No Iterations 190
time step continuity errors : sum local = 4.12195e-10, global = 4.63312e-20, cumulative = 2.897e-20
ExecutionTime = 0.04 s  ClockTime = 0 s

Time = 0.0015

Courant Number mean: 0.03352 max: 0.439995
smoothSolver:  Solving for Ux, Initial residual = 0.0504612, Final residual = 9.32058e-06, No Iterations 42
smoothSolver:  Solving for Uy, Initial residual = 0.116587, Final residual = 8.92452e-06, No Iterations 48
DICPCG:  Solving for p, Initial residual = 0.545922, Final residual = 0.0272279, No Iterations 57
time step continuity errors : sum local = 8.04754e-06, global = -2.64698e-21, cumulative = 2.6323e-20
DICPCG:  Solving for p, Initial residual = 0.493356, Final residual = 9.90769e-07, No Iterations 178
time step continuity errors : sum local = 2.79031e-10, global = 1.88835e-20, cumulative = 4.52065e-20
ExecutionTime = 0.05 s  ClockTime = 0 s

Time = 0.002

Courant Number mean: 0.0405187 max: 0.45318
smoothSolver:  Solving for Ux, Initial residual = 0.0309696, Final residual = 9.20378e-06, No Iterations 40
smoothSolver:  Solving for Uy, Initial residual = 0.0840433, Final residual = 8.71483e-06, No Iterations 47
DICPCG:  Solving for p, Initial residual = 0.321299, Final residual = 0.0140055, No Iterations 106
time step continuity errors : sum local = 3.32064e-06, global = 2.38145e-20, cumulative = 6.9021e-20
DICPCG:  Solving for p, Initial residual = 0.275856, Final residual = 8.56887e-07, No Iterations 178
time step continuity errors : sum local = 2.10414e-10, global = 2.82643e-20, cumulative = 9.72853e-20
ExecutionTime = 0.07 s  ClockTime = 0 s

Time = 0.0025

Courant Number mean: 0.0459915 max: 0.46004
smoothSolver:  Solving for Ux, Initial residual = 0.0239889, Final residual = 9.98921e-06, No Iterations 39
smoothSolver:  Solving for Uy, Initial residual = 0.0522919, Final residual = 8.45006e-06, No Iterations 45
DICPCG:  Solving for p, Initial residual = 0.174465, Final residual = 0.00774382, No Iterations 60
time step continuity errors : sum local = 1.84103e-06, global = 2.5808e-21, cumulative = 9.98661e-20
DICPCG:  Solving for p, Initial residual = 0.153898, Final residual = 9.02556e-07, No Iterations 170
time step continuity errors : sum local = 1.81251e-10, global = 1.72106e-20, cumulative = 1.17077e-19
ExecutionTime = 0.08 s  ClockTime = 0 s

Time = 0.003

Courant Number mean: 0.0504384 max: 0.464088
smoothSolver:  Solving for Ux, Initial residual = 0.0190259, Final residual = 8.60124e-06, No Iterations 39
smoothSolver:  Solving for Uy, Initial residual = 0.0422049, Final residual = 8.55417e-06, No Iterations 44
DICPCG:  Solving for p, Initial residual = 0.110658, Final residual = 0.00452575, No Iterations 106
time step continuity errors : sum local = 8.72194e-07, global = 8.13532e-21, cumulative = 1.25212e-19
DICPCG:  Solving for p, Initial residual = 0.0978343, Final residual = 8.45333e-07, No Iterations 171
time step continuity errors : sum local = 1.69954e-10, global = -1.45912e-20, cumulative = 1.10621e-19
ExecutionTime = 0.09 s  ClockTime = 0 s

Time = 0.0035

Courant Number mean: 0.0542243 max: 0.466991
smoothSolver:  Solving for Ux, Initial residual = 0.0156916, Final residual = 8.95667e-06, No Iterations 38
smoothSolver:  Solving for Uy, Initial residual = 0.0337153, Final residual = 8.60451e-06, No Iterations 43
DICPCG:  Solving for p, Initial residual = 0.0661743, Final residual = 0.0030795, No Iterations 103
time step continuity errors : sum local = 5.68044e-07, global = 1.9096e-20, cumulative = 1.29717e-19
DICPCG:  Solving for p, Initial residual = 0.0593598, Final residual = 8.19746e-07, No Iterations 167
time step continuity errors : sum local = 1.52048e-10, global = 5.09506e-20, cumulative = 1.80668e-19
ExecutionTime = 0.11 s  ClockTime = 0 s

Time = 0.004

Courant Number mean: 0.0575188 max: 0.46919
smoothSolver:  Solving for Ux, Initial residual = 0.0133829, Final residual = 9.69226e-06, No Iterations 37
smoothSolver:  Solving for Uy, Initial residual = 0.0284317, Final residual = 8.95537e-06, No Iterations 42
DICPCG:  Solving for p, Initial residual = 0.040216, Final residual = 0.00188954, No Iterations 64
time step continuity errors : sum local = 4.22654e-07, global = -2.30949e-20, cumulative = 1.57573e-19
DICPCG:  Solving for p, Initial residual = 0.0359922, Final residual = 8.33582e-07, No Iterations 165
time step continuity errors : sum local = 1.50705e-10, global = 1.47796e-21, cumulative = 1.59051e-19
ExecutionTime = 0.12 s  ClockTime = 0 s

Time = 0.0045

Courant Number mean: 0.0604452 max: 0.470895
smoothSolver:  Solving for Ux, Initial residual = 0.0116569, Final residual = 8.74477e-06, No Iterations 37
smoothSolver:  Solving for Uy, Initial residual = 0.024706, Final residual = 9.60466e-06, No Iterations 41
DICPCG:  Solving for p, Initial residual = 0.0368359, Final residual = 0.0015432, No Iterations 106
time step continuity errors : sum local = 2.78785e-07, global = -1.96812e-20, cumulative = 1.39369e-19
DICPCG:  Solving for p, Initial residual = 0.0338211, Final residual = 9.7819e-07, No Iterations 166
time step continuity errors : sum local = 1.78975e-10, global = 1.13213e-19, cumulative = 2.52582e-19
ExecutionTime = 0.13 s  ClockTime = 0 s

Time = 0.005

Courant Number mean: 0.0630653 max: 0.472299
smoothSolver:  Solving for Ux, Initial residual = 0.0102859, Final residual = 9.66492e-06, No Iterations 36
smoothSolver:  Solving for Uy, Initial residual = 0.0216629, Final residual = 8.49923e-06, No Iterations 41
DICPCG:  Solving for p, Initial residual = 0.0268867, Final residual = 0.00131275, No Iterations 63
time step continuity errors : sum local = 2.9563e-07, global = 6.29195e-20, cumulative = 3.15502e-19
DICPCG:  Solving for p, Initial residual = 0.0241308, Final residual = 9.65858e-07, No Iterations 164
time step continuity errors : sum local = 1.73433e-10, global = -2.95955e-20, cumulative = 2.85906e-19
ExecutionTime = 0.14 s  ClockTime = 0 s

Time = 0.0055

Courant Number mean: 0.0654486 max: 0.473465
smoothSolver:  Solving for Ux, Initial residual = 0.00919226, Final residual = 8.87436e-06, No Iterations 36
smoothSolver:  Solving for Uy, Initial residual = 0.0193266, Final residual = 9.30201e-06, No Iterations 40
DICPCG:  Solving for p, Initial residual = 0.026807, Final residual = 0.00115451, No Iterations 106
time step continuity errors : sum local = 2.07674e-07, global = 2.63369e-20, cumulative = 3.12243e-19
DICPCG:  Solving for p, Initial residual = 0.0245717, Final residual = 7.98991e-07, No Iterations 166
time step continuity errors : sum local = 1.45061e-10, global = -1.72615e-20, cumulative = 2.94982e-19
ExecutionTime = 0.16 s  ClockTime = 0 s

Time = 0.006

Courant Number mean: 0.0676226 max: 0.474441
smoothSolver:  Solving for Ux, Initial residual = 0.00828885, Final residual = 9.92504e-06, No Iterations 35
smoothSolver:  Solving for Uy, Initial residual = 0.0173497, Final residual = 8.40728e-06, No Iterations 40
DICPCG:  Solving for p, Initial residual = 0.0208117, Final residual = 0.000993542, No Iterations 64
time step continuity errors : sum local = 2.20003e-07, global = 1.09233e-19, cumulative = 4.04215e-19
DICPCG:  Solving for p, Initial residual = 0.0187983, Final residual = 9.87338e-07, No Iterations 158
time step continuity errors : sum local = 1.77617e-10, global = 3.7194e-20, cumulative = 4.41409e-19
ExecutionTime = 0.17 s  ClockTime = 0 s

Time = 0.0065

Courant Number mean: 0.0696243 max: 0.475292
smoothSolver:  Solving for Ux, Initial residual = 0.00753093, Final residual = 9.21093e-06, No Iterations 35
smoothSolver:  Solving for Uy, Initial residual = 0.0157574, Final residual = 9.33792e-06, No Iterations 39
DICPCG:  Solving for p, Initial residual = 0.020629, Final residual = 0.000858948, No Iterations 106
time step continuity errors : sum local = 1.54241e-07, global = 6.61403e-20, cumulative = 5.07549e-19
DICPCG:  Solving for p, Initial residual = 0.018948, Final residual = 8.43778e-07, No Iterations 165
time step continuity errors : sum local = 1.52574e-10, global = 2.56357e-20, cumulative = 5.33185e-19
ExecutionTime = 0.18 s  ClockTime = 0 s

Time = 0.007

Courant Number mean: 0.0714794 max: 0.476022
smoothSolver:  Solving for Ux, Initial residual = 0.00688946, Final residual = 8.62762e-06, No Iterations 35
smoothSolver:  Solving for Uy, Initial residual = 0.0143744, Final residual = 8.56376e-06, No Iterations 39
DICPCG:  Solving for p, Initial residual = 0.0160391, Final residual = 0.000712019, No Iterations 64
time step continuity errors : sum local = 1.56562e-07, global = 5.63455e-20, cumulative = 5.8953e-19
DICPCG:  Solving for p, Initial residual = 0.0144825, Final residual = 9.23188e-07, No Iterations 162
time step continuity errors : sum local = 1.65266e-10, global = -4.74778e-20, cumulative = 5.42053e-19
ExecutionTime = 0.2 s  ClockTime = 0 s

Time = 0.0075

Courant Number mean: 0.0731982 max: 0.476674
smoothSolver:  Solving for Ux, Initial residual = 0.00633385, Final residual = 9.71504e-06, No Iterations 34
smoothSolver:  Solving for Uy, Initial residual = 0.0132177, Final residual = 9.6008e-06, No Iterations 38
DICPCG:  Solving for p, Initial residual = 0.0161318, Final residual = 0.000745861, No Iterations 105
time step continuity errors : sum local = 1.33845e-07, global = -1.7712e-21, cumulative = 5.40281e-19
DICPCG:  Solving for p, Initial residual = 0.0148649, Final residual = 8.82878e-07, No Iterations 164
time step continuity errors : sum local = 1.59231e-10, global = -5.28949e-20, cumulative = 4.87386e-19
ExecutionTime = 0.21 s  ClockTime = 0 s

Time = 0.008

Courant Number mean: 0.0748075 max: 0.477246
smoothSolver:  Solving for Ux, Initial residual = 0.00585573, Final residual = 9.15373e-06, No Iterations 34
smoothSolver:  Solving for Uy, Initial residual = 0.0121985, Final residual = 8.90142e-06, No Iterations 38
DICPCG:  Solving for p, Initial residual = 0.0131973, Final residual = 0.000567285, No Iterations 64
time step continuity errors : sum local = 1.20133e-07, global = -2.58039e-20, cumulative = 4.61583e-19
DICPCG:  Solving for p, Initial residual = 0.011964, Final residual = 9.30887e-07, No Iterations 161
time step continuity errors : sum local = 1.6685e-10, global = -3.1493e-20, cumulative = 4.3009e-19
ExecutionTime = 0.22 s  ClockTime = 0 s

Time = 0.0085

Courant Number mean: 0.0763154 max: 0.477764
smoothSolver:  Solving for Ux, Initial residual = 0.00542766, Final residual = 8.61029e-06, No Iterations 34
smoothSolver:  Solving for Uy, Initial residual = 0.0113239, Final residual = 8.33033e-06, No Iterations 38
DICPCG:  Solving for p, Initial residual = 0.0129042, Final residual = 0.000579614, No Iterations 105
time step continuity errors : sum local = 1.04069e-07, global = 4.83017e-20, cumulative = 4.78391e-19
DICPCG:  Solving for p, Initial residual = 0.011865, Final residual = 8.65561e-07, No Iterations 163
time step continuity errors : sum local = 1.55717e-10, global = 1.60099e-20, cumulative = 4.94401e-19
ExecutionTime = 0.24 s  ClockTime = 0 s

Time = 0.009

Courant Number mean: 0.0777288 max: 0.478226
smoothSolver:  Solving for Ux, Initial residual = 0.00505959, Final residual = 9.80476e-06, No Iterations 33
smoothSolver:  Solving for Uy, Initial residual = 0.0105366, Final residual = 9.39272e-06, No Iterations 37
DICPCG:  Solving for p, Initial residual = 0.0106239, Final residual = 0.000433022, No Iterations 64
time step continuity errors : sum local = 8.8021e-08, global = 2.2702e-20, cumulative = 5.17103e-19
DICPCG:  Solving for p, Initial residual = 0.00967406, Final residual = 9.20664e-07, No Iterations 160
time step continuity errors : sum local = 1.64794e-10, global = 5.4967e-20, cumulative = 5.7207e-19
ExecutionTime = 0.25 s  ClockTime = 0 s

Time = 0.0095

Courant Number mean: 0.0790595 max: 0.478649
smoothSolver:  Solving for Ux, Initial residual = 0.00472162, Final residual = 9.26506e-06, No Iterations 33
smoothSolver:  Solving for Uy, Initial residual = 0.00984934, Final residual = 8.83622e-06, No Iterations 37
DICPCG:  Solving for p, Initial residual = 0.0104292, Final residual = 0.000407807, No Iterations 105
time step continuity errors : sum local = 7.30902e-08, global = 6.61595e-20, cumulative = 6.38229e-19
DICPCG:  Solving for p, Initial residual = 0.00961262, Final residual = 7.96704e-07, No Iterations 162
time step continuity errors : sum local = 1.42983e-10, global = 7.44505e-20, cumulative = 7.1268e-19
ExecutionTime = 0.26 s  ClockTime = 0 s

Time = 0.01

Courant Number mean: 0.0803196 max: 0.47903
smoothSolver:  Solving for Ux, Initial residual = 0.00442825, Final residual = 8.80021e-06, No Iterations 33
smoothSolver:  Solving for Uy, Initial residual = 0.00922418, Final residual = 8.30599e-06, No Iterations 37
DICPCG:  Solving for p, Initial residual = 0.00873907, Final residual = 0.000390868, No Iterations 64
time step continuity errors : sum local = 7.65099e-08, global = -6.65281e-20, cumulative = 6.46152e-19
DICPCG:  Solving for p, Initial residual = 0.00801777, Final residual = 9.32278e-07, No Iterations 160
time step continuity errors : sum local = 1.66807e-10, global = 3.73249e-20, cumulative = 6.83477e-19
ExecutionTime = 0.27 s  ClockTime = 0 s

Time = 0.0105

Courant Number mean: 0.0815116 max: 0.479383
smoothSolver:  Solving for Ux, Initial residual = 0.00415496, Final residual = 8.34726e-06, No Iterations 33
smoothSolver:  Solving for Uy, Initial residual = 0.0086727, Final residual = 9.47464e-06, No Iterations 36
DICPCG:  Solving for p, Initial residual = 0.00888636, Final residual = 0.000359065, No Iterations 105
time step continuity errors : sum local = 6.43251e-08, global = -2.06888e-20, cumulative = 6.62788e-19
DICPCG:  Solving for p, Initial residual = 0.00819676, Final residual = 9.64956e-07, No Iterations 160
time step continuity errors : sum local = 1.73112e-10, global = -4.50292e-20, cumulative = 6.17759e-19
ExecutionTime = 0.29 s  ClockTime = 0 s

Time = 0.011

Courant Number mean: 0.0826394 max: 0.479703
smoothSolver:  Solving for Ux, Initial residual = 0.00391575, Final residual = 9.55354e-06, No Iterations 32
smoothSolver:  Solving for Uy, Initial residual = 0.00816442, Final residual = 8.94662e-06, No Iterations 36
DICPCG:  Solving for p, Initial residual = 0.00750368, Final residual = 0.000356277, No Iterations 64
time step continuity errors : sum local = 6.96828e-08, global = 3.5652e-20, cumulative = 6.53411e-19
DICPCG:  Solving for p, Initial residual = 0.00691993, Final residual = 8.00615e-07, No Iterations 160
time step continuity errors : sum local = 1.43378e-10, global = -9.73263e-20, cumulative = 5.56084e-19
ExecutionTime = 0.3 s  ClockTime = 0 s

Time = 0.0115

Courant Number mean: 0.0837092 max: 0.480002
smoothSolver:  Solving for Ux, Initial residual = 0.0036911, Final residual = 9.08632e-06, No Iterations 32
smoothSolver:  Solving for Uy, Initial residual = 0.00770898, Final residual = 8.49234e-06, No Iterations 36
DICPCG:  Solving for p, Initial residual = 0.00787909, Final residual = 0.000322207, No Iterations 105
time step continuity errors : sum local = 5.7764e-08, global = -1.55699e-20, cumulative = 5.40515e-19
DICPCG:  Solving for p, Initial residual = 0.00727921, Final residual = 8.14813e-07, No Iterations 160
time step continuity errors : sum local = 1.46233e-10, global = -2.34912e-20, cumulative = 5.17023e-19
ExecutionTime = 0.31 s  ClockTime = 0 s

Time = 0.012

Courant Number mean: 0.0847298 max: 0.480275
smoothSolver:  Solving for Ux, Initial residual = 0.0034921, Final residual = 8.67485e-06, No Iterations 32
smoothSolver:  Solving for Uy, Initial residual = 0.00728909, Final residual = 9.70907e-06, No Iterations 35
DICPCG:  Solving for p, Initial residual = 0.00662909, Final residual = 0.000320327, No Iterations 64
time step continuity errors : sum local = 6.2213e-08, global = -1.15279e-19, cumulative = 4.01744e-19
DICPCG:  Solving for p, Initial residual = 0.00612437, Final residual = 9.70575e-07, No Iterations 159
time step continuity errors : sum local = 1.73868e-10, global = -2.8821e-20, cumulative = 3.72923e-19
ExecutionTime = 0.32 s  ClockTime = 0 s

Time = 0.0125

Courant Number mean: 0.0857018 max: 0.480531
smoothSolver:  Solving for Ux, Initial residual = 0.00330398, Final residual = 9.93007e-06, No Iterations 31
smoothSolver:  Solving for Uy, Initial residual = 0.00690807, Final residual = 9.24623e-06, No Iterations 35
DICPCG:  Solving for p, Initial residual = 0.00701186, Final residual = 0.00028459, No Iterations 105
time step continuity errors : sum local = 5.10378e-08, global = 1.06278e-19, cumulative = 4.79202e-19
DICPCG:  Solving for p, Initial residual = 0.00648661, Final residual = 9.43846e-07, No Iterations 149
time step continuity errors : sum local = 1.69469e-10, global = 9.30452e-20, cumulative = 5.72247e-19
ExecutionTime = 0.33 s  ClockTime = 0 s

Time = 0.013

Courant Number mean: 0.0866274 max: 0.480767
smoothSolver:  Solving for Ux, Initial residual = 0.0031363, Final residual = 9.49983e-06, No Iterations 31
smoothSolver:  Solving for Uy, Initial residual = 0.00655337, Final residual = 8.78948e-06, No Iterations 35
DICPCG:  Solving for p, Initial residual = 0.00590024, Final residual = 0.000279067, No Iterations 64
time step continuity errors : sum local = 5.34972e-08, global = -6.0591e-20, cumulative = 5.11656e-19
DICPCG:  Solving for p, Initial residual = 0.00546393, Final residual = 8.4963e-07, No Iterations 159
time step continuity errors : sum local = 1.52253e-10, global = 9.35368e-20, cumulative = 6.05193e-19
ExecutionTime = 0.35 s  ClockTime = 0 s

Time = 0.0135

Courant Number mean: 0.08751 max: 0.480989
smoothSolver:  Solving for Ux, Initial residual = 0.00297665, Final residual = 9.06999e-06, No Iterations 31
smoothSolver:  Solving for Uy, Initial residual = 0.00622952, Final residual = 8.39124e-06, No Iterations 35
DICPCG:  Solving for p, Initial residual = 0.00619101, Final residual = 0.000298682, No Iterations 65
time step continuity errors : sum local = 6.60898e-08, global = -2.40131e-20, cumulative = 5.8118e-19
DICPCG:  Solving for p, Initial residual = 0.00579991, Final residual = 8.45684e-07, No Iterations 158
time step continuity errors : sum local = 1.51613e-10, global = -8.47674e-20, cumulative = 4.96413e-19
ExecutionTime = 0.36 s  ClockTime = 0 s

Time = 0.014

Courant Number mean: 0.0883523 max: 0.481194
smoothSolver:  Solving for Ux, Initial residual = 0.0028386, Final residual = 8.71213e-06, No Iterations 31
smoothSolver:  Solving for Uy, Initial residual = 0.00591655, Final residual = 9.61162e-06, No Iterations 34
DICPCG:  Solving for p, Initial residual = 0.00705312, Final residual = 0.000293804, No Iterations 106
time step continuity errors : sum local = 5.27787e-08, global = -8.79356e-20, cumulative = 4.08477e-19
DICPCG:  Solving for p, Initial residual = 0.00660745, Final residual = 9.94439e-07, No Iterations 160
time step continuity errors : sum local = 1.78876e-10, global = -7.34672e-20, cumulative = 3.3501e-19
ExecutionTime = 0.37 s  ClockTime = 0 s

Time = 0.0145

Courant Number mean: 0.089161 max: 0.481387
smoothSolver:  Solving for Ux, Initial residual = 0.00269908, Final residual = 9.98997e-06, No Iterations 30
smoothSolver:  Solving for Uy, Initial residual = 0.00564882, Final residual = 9.22181e-06, No Iterations 34
DICPCG:  Solving for p, Initial residual = 0.00547641, Final residual = 0.000260641, No Iterations 65
time step continuity errors : sum local = 5.47876e-08, global = 7.52993e-21, cumulative = 3.4254e-19
DICPCG:  Solving for p, Initial residual = 0.00503028, Final residual = 9.46291e-07, No Iterations 158
time step continuity errors : sum local = 1.69701e-10, global = -1.98523e-20, cumulative = 3.22687e-19
ExecutionTime = 0.38 s  ClockTime = 0 s

Time = 0.015

Courant Number mean: 0.0899359 max: 0.481569
smoothSolver:  Solving for Ux, Initial residual = 0.00257458, Final residual = 9.5812e-06, No Iterations 30
smoothSolver:  Solving for Uy, Initial residual = 0.00538209, Final residual = 8.79968e-06, No Iterations 34
DICPCG:  Solving for p, Initial residual = 0.0060956, Final residual = 0.000301832, No Iterations 105
time step continuity errors : sum local = 5.43291e-08, global = 2.88009e-20, cumulative = 3.51488e-19
DICPCG:  Solving for p, Initial residual = 0.00567804, Final residual = 9.94119e-07, No Iterations 159
time step continuity errors : sum local = 1.78628e-10, global = 5.06333e-20, cumulative = 4.02122e-19
ExecutionTime = 0.39 s  ClockTime = 0 s

Time = 0.0155

Courant Number mean: 0.0906783 max: 0.481738
smoothSolver:  Solving for Ux, Initial residual = 0.00245651, Final residual = 9.17947e-06, No Iterations 30
smoothSolver:  Solving for Uy, Initial residual = 0.00514547, Final residual = 8.44272e-06, No Iterations 34
DICPCG:  Solving for p, Initial residual = 0.0049101, Final residual = 0.000214503, No Iterations 64
time step continuity errors : sum local = 4.31201e-08, global = -2.66293e-20, cumulative = 3.75492e-19
DICPCG:  Solving for p, Initial residual = 0.00451517, Final residual = 8.40235e-07, No Iterations 158
time step continuity errors : sum local = 1.50951e-10, global = -6.73446e-20, cumulative = 3.08148e-19
ExecutionTime = 0.4 s  ClockTime = 0 s

Time = 0.016

Courant Number mean: 0.0913901 max: 0.481899
smoothSolver:  Solving for Ux, Initial residual = 0.00234683, Final residual = 8.80812e-06, No Iterations 30
smoothSolver:  Solving for Uy, Initial residual = 0.00491484, Final residual = 9.73815e-06, No Iterations 33
DICPCG:  Solving for p, Initial residual = 0.00511842, Final residual = 0.000216403, No Iterations 105
time step continuity errors : sum local = 3.89857e-08, global = -6.46318e-20, cumulative = 2.43516e-19
DICPCG:  Solving for p, Initial residual = 0.0047613, Final residual = 9.29978e-07, No Iterations 158
time step continuity errors : sum local = 1.66915e-10, global = 1.08643e-19, cumulative = 3.52159e-19
ExecutionTime = 0.42 s  ClockTime = 0 s

Time = 0.0165

Courant Number mean: 0.0920724 max: 0.482048
smoothSolver:  Solving for Ux, Initial residual = 0.00224478, Final residual = 8.45385e-06, No Iterations 30
smoothSolver:  Solving for Uy, Initial residual = 0.0047056, Final residual = 9.34974e-06, No Iterations 33
DICPCG:  Solving for p, Initial residual = 0.00429312, Final residual = 0.000192805, No Iterations 64
time step continuity errors : sum local = 3.76944e-08, global = 6.16387e-20, cumulative = 4.13797e-19
DICPCG:  Solving for p, Initial residual = 0.00396069, Final residual = 9.70466e-07, No Iterations 157
time step continuity errors : sum local = 1.74246e-10, global = 3.24309e-20, cumulative = 4.46228e-19
ExecutionTime = 0.43 s  ClockTime = 0 s

Time = 0.017

Courant Number mean: 0.0927267 max: 0.482191
smoothSolver:  Solving for Ux, Initial residual = 0.00214716, Final residual = 9.74014e-06, No Iterations 29
smoothSolver:  Solving for Uy, Initial residual = 0.00450612, Final residual = 8.97079e-06, No Iterations 33
DICPCG:  Solving for p, Initial residual = 0.00457126, Final residual = 0.000224097, No Iterations 104
time step continuity errors : sum local = 4.02544e-08, global = -4.20444e-20, cumulative = 4.04184e-19
DICPCG:  Solving for p, Initial residual = 0.00425936, Final residual = 8.92077e-07, No Iterations 157
time step continuity errors : sum local = 1.60587e-10, global = 1.18911e-19, cumulative = 5.23095e-19
ExecutionTime = 0.44 s  ClockTime = 0 s

Time = 0.0175

Courant Number mean: 0.0933552 max: 0.482324
smoothSolver:  Solving for Ux, Initial residual = 0.00205885, Final residual = 9.36586e-06, No Iterations 29
smoothSolver:  Solving for Uy, Initial residual = 0.00431867, Final residual = 8.618e-06, No Iterations 33
DICPCG:  Solving for p, Initial residual = 0.00392371, Final residual = 0.000190639, No Iterations 64
time step continuity errors : sum local = 3.86924e-08, global = 9.24036e-20, cumulative = 6.15498e-19
DICPCG:  Solving for p, Initial residual = 0.00361513, Final residual = 9.48885e-07, No Iterations 156
time step continuity errors : sum local = 1.70686e-10, global = -7.79667e-20, cumulative = 5.37532e-19
ExecutionTime = 0.45 s  ClockTime = 0 s

Time = 0.018

Courant Number mean: 0.0939616 max: 0.482452
smoothSolver:  Solving for Ux, Initial residual = 0.0019734, Final residual = 9.00398e-06, No Iterations 29
smoothSolver:  Solving for Uy, Initial residual = 0.00414053, Final residual = 9.96842e-06, No Iterations 32
DICPCG:  Solving for p, Initial residual = 0.00444012, Final residual = 0.000169248, No Iterations 106
time step continuity errors : sum local = 3.04594e-08, global = 5.97579e-20, cumulative = 5.97289e-19
DICPCG:  Solving for p, Initial residual = 0.00414102, Final residual = 8.50696e-07, No Iterations 157
time step continuity errors : sum local = 1.53093e-10, global = -9.40807e-20, cumulative = 5.03209e-19
ExecutionTime = 0.46 s  ClockTime = 0 s

Time = 0.0185

Courant Number mean: 0.0945451 max: 0.48257
smoothSolver:  Solving for Ux, Initial residual = 0.00189422, Final residual = 8.6603e-06, No Iterations 29
smoothSolver:  Solving for Uy, Initial residual = 0.00397638, Final residual = 9.59824e-06, No Iterations 32
DICPCG:  Solving for p, Initial residual = 0.00356502, Final residual = 0.000175567, No Iterations 64
time step continuity errors : sum local = 3.58624e-08, global = -2.86504e-20, cumulative = 4.74558e-19
DICPCG:  Solving for p, Initial residual = 0.00329311, Final residual = 9.94174e-07, No Iterations 155
time step continuity errors : sum local = 1.78739e-10, global = -5.89425e-20, cumulative = 4.15616e-19
ExecutionTime = 0.47 s  ClockTime = 0 s

Time = 0.019

Courant Number mean: 0.0951072 max: 0.482685
smoothSolver:  Solving for Ux, Initial residual = 0.00181801, Final residual = 8.33191e-06, No Iterations 29
smoothSolver:  Solving for Uy, Initial residual = 0.00381772, Final residual = 9.22474e-06, No Iterations 32
DICPCG:  Solving for p, Initial residual = 0.00407943, Final residual = 0.000196897, No Iterations 104
time step continuity errors : sum local = 3.55399e-08, global = 6.28268e-20, cumulative = 4.78443e-19
DICPCG:  Solving for p, Initial residual = 0.00381556, Final residual = 9.02324e-07, No Iterations 156
time step continuity errors : sum local = 1.6233e-10, global = -1.25967e-20, cumulative = 4.65846e-19
ExecutionTime = 0.49 s  ClockTime = 0 s

Time = 0.0195

Courant Number mean: 0.0956486 max: 0.482792
smoothSolver:  Solving for Ux, Initial residual = 0.00174755, Final residual = 9.62734e-06, No Iterations 28
smoothSolver:  Solving for Uy, Initial residual = 0.00367025, Final residual = 8.88826e-06, No Iterations 32
DICPCG:  Solving for p, Initial residual = 0.00339321, Final residual = 0.000161639, No Iterations 63
time step continuity errors : sum local = 3.22235e-08, global = 9.03301e-20, cumulative = 5.56176e-19
DICPCG:  Solving for p, Initial residual = 0.00314573, Final residual = 7.78025e-07, No Iterations 155
time step continuity errors : sum local = 1.39953e-10, global = -2.05036e-20, cumulative = 5.35672e-19
ExecutionTime = 0.5 s  ClockTime = 0 s

Time = 0.02

Courant Number mean: 0.0961698 max: 0.482895
smoothSolver:  Solving for Ux, Initial residual = 0.00167927, Final residual = 9.27086e-06, No Iterations 28
smoothSolver:  Solving for Uy, Initial residual = 0.00352842, Final residual = 8.55265e-06, No Iterations 32
DICPCG:  Solving for p, Initial residual = 0.00360205, Final residual = 0.000177848, No Iterations 104
time step continuity errors : sum local = 3.20442e-08, global = -8.90589e-20, cumulative = 4.46614e-19
DICPCG:  Solving for p, Initial residual = 0.00336761, Final residual = 8.38899e-07, No Iterations 155
time step continuity errors : sum local = 1.5096e-10, global = 7.19677e-20, cumulative = 5.18581e-19
ExecutionTime = 0.51 s  ClockTime = 1 s

Time = 0.0205

Courant Number mean: 0.0966723 max: 0.482991
smoothSolver:  Solving for Ux, Initial residual = 0.00161604, Final residual = 8.93089e-06, No Iterations 28
smoothSolver:  Solving for Uy, Initial residual = 0.00339629, Final residual = 9.93967e-06, No Iterations 31
DICPCG:  Solving for p, Initial residual = 0.00315861, Final residual = 0.000150961, No Iterations 64
time step continuity errors : sum local = 3.10319e-08, global = 9.93408e-20, cumulative = 6.17922e-19
DICPCG:  Solving for p, Initial residual = 0.0029122, Final residual = 9.11524e-07, No Iterations 154
time step continuity errors : sum local = 1.64162e-10, global = -4.48322e-20, cumulative = 5.7309e-19
ExecutionTime = 0.52 s  ClockTime = 1 s

Time = 0.021

Courant Number mean: 0.0971566 max: 0.483084
smoothSolver:  Solving for Ux, Initial residual = 0.00155448, Final residual = 8.60498e-06, No Iterations 28
smoothSolver:  Solving for Uy, Initial residual = 0.00326967, Final residual = 9.57784e-06, No Iterations 31
DICPCG:  Solving for p, Initial residual = 0.00347353, Final residual = 0.000156547, No Iterations 105
time step continuity errors : sum local = 2.8213e-08, global = -1.02016e-19, cumulative = 4.71074e-19
DICPCG:  Solving for p, Initial residual = 0.00324079, Final residual = 8.70588e-07, No Iterations 155
time step continuity errors : sum local = 1.56671e-10, global = -1.02675e-19, cumulative = 3.68399e-19
ExecutionTime = 0.53 s  ClockTime = 1 s

Time = 0.0215

Courant Number mean: 0.0976234 max: 0.483171
smoothSolver:  Solving for Ux, Initial residual = 0.0014981, Final residual = 9.9602e-06, No Iterations 27
smoothSolver:  Solving for Uy, Initial residual = 0.00315019, Final residual = 9.24545e-06, No Iterations 31
DICPCG:  Solving for p, Initial residual = 0.0028835, Final residual = 0.00013929, No Iterations 64
time step continuity errors : sum local = 2.91772e-08, global = 4.94804e-20, cumulative = 4.17879e-19
DICPCG:  Solving for p, Initial residual = 0.00265525, Final residual = 8.32127e-07, No Iterations 154
time step continuity errors : sum local = 1.49896e-10, global = 3.94123e-20, cumulative = 4.57292e-19
ExecutionTime = 0.54 s  ClockTime = 1 s

Time = 0.022

Courant Number mean: 0.0980734 max: 0.483255
smoothSolver:  Solving for Ux, Initial residual = 0.00144317, Final residual = 9.60977e-06, No Iterations 27
smoothSolver:  Solving for Uy, Initial residual = 0.00303331, Final residual = 8.90422e-06, No Iterations 31
DICPCG:  Solving for p, Initial residual = 0.00330203, Final residual = 0.000160841, No Iterations 105
time step continuity errors : sum local = 2.89879e-08, global = -5.37048e-20, cumulative = 4.03587e-19
DICPCG:  Solving for p, Initial residual = 0.00308075, Final residual = 8.80753e-07, No Iterations 155
time step continuity errors : sum local = 1.58651e-10, global = 5.23841e-20, cumulative = 4.55971e-19
ExecutionTime = 0.55 s  ClockTime = 1 s

Time = 0.0225

Courant Number mean: 0.0985092 max: 0.483334
smoothSolver:  Solving for Ux, Initial residual = 0.00139124, Final residual = 9.26587e-06, No Iterations 27
smoothSolver:  Solving for Uy, Initial residual = 0.00292723, Final residual = 8.61006e-06, No Iterations 31
DICPCG:  Solving for p, Initial residual = 0.00274479, Final residual = 0.000132666, No Iterations 65
time step continuity errors : sum local = 2.82689e-08, global = 9.21831e-20, cumulative = 5.48154e-19
DICPCG:  Solving for p, Initial residual = 0.0025267, Final residual = 9.87098e-07, No Iterations 153
time step continuity errors : sum local = 1.77833e-10, global = -4.4618e-21, cumulative = 5.43692e-19
ExecutionTime = 0.57 s  ClockTime = 1 s

Time = 0.023

Courant Number mean: 0.0989307 max: 0.48341
smoothSolver:  Solving for Ux, Initial residual = 0.00134204, Final residual = 8.94775e-06, No Iterations 27
smoothSolver:  Solving for Uy, Initial residual = 0.00282049, Final residual = 9.99967e-06, No Iterations 30
DICPCG:  Solving for p, Initial residual = 0.00312287, Final residual = 0.000139449, No Iterations 105
time step continuity errors : sum local = 2.51723e-08, global = 1.80897e-20, cumulative = 5.61782e-19
DICPCG:  Solving for p, Initial residual = 0.00291176, Final residual = 8.86648e-07, No Iterations 155
time step continuity errors : sum local = 1.59743e-10, global = 1.3245e-20, cumulative = 5.75027e-19
ExecutionTime = 0.58 s  ClockTime = 1 s

Time = 0.0235

Courant Number mean: 0.0993379 max: 0.483482
smoothSolver:  Solving for Ux, Initial residual = 0.00129444, Final residual = 8.62906e-06, No Iterations 27
smoothSolver:  Solving for Uy, Initial residual = 0.00272492, Final residual = 9.67917e-06, No Iterations 30
DICPCG:  Solving for p, Initial residual = 0.00252379, Final residual = 0.000125786, No Iterations 64
time step continuity errors : sum local = 2.66088e-08, global = 1.00509e-19, cumulative = 6.75535e-19
DICPCG:  Solving for p, Initial residual = 0.0023261, Final residual = 9.38472e-07, No Iterations 152
time step continuity errors : sum local = 1.68673e-10, global = -2.64818e-20, cumulative = 6.49054e-19
ExecutionTime = 0.59 s  ClockTime = 1 s

Time = 0.024

Courant Number mean: 0.0997317 max: 0.483552
smoothSolver:  Solving for Ux, Initial residual = 0.00124948, Final residual = 8.33904e-06, No Iterations 27
smoothSolver:  Solving for Uy, Initial residual = 0.00262754, Final residual = 9.33289e-06, No Iterations 30
DICPCG:  Solving for p, Initial residual = 0.00287854, Final residual = 0.000133723, No Iterations 105
time step continuity errors : sum local = 2.41328e-08, global = -6.84725e-21, cumulative = 6.42206e-19
DICPCG:  Solving for p, Initial residual = 0.00268765, Final residual = 8.33106e-07, No Iterations 155
time step continuity errors : sum local = 1.50111e-10, global = 7.15059e-20, cumulative = 7.13712e-19
ExecutionTime = 0.6 s  ClockTime = 1 s

Time = 0.0245

Courant Number mean: 0.100112 max: 0.483617
smoothSolver:  Solving for Ux, Initial residual = 0.00120612, Final residual = 9.66066e-06, No Iterations 26
smoothSolver:  Solving for Uy, Initial residual = 0.00254065, Final residual = 9.04045e-06, No Iterations 30
DICPCG:  Solving for p, Initial residual = 0.00239378, Final residual = 0.000118783, No Iterations 65
time step continuity errors : sum local = 2.54858e-08, global = -2.25608e-20, cumulative = 6.91151e-19
DICPCG:  Solving for p, Initial residual = 0.00220288, Final residual = 8.07498e-07, No Iterations 153
time step continuity errors : sum local = 1.45391e-10, global = -4.18982e-20, cumulative = 6.49253e-19
ExecutionTime = 0.61 s  ClockTime = 1 s

Time = 0.025

Courant Number mean: 0.10048 max: 0.483681
smoothSolver:  Solving for Ux, Initial residual = 0.00116567, Final residual = 9.3443e-06, No Iterations 26
smoothSolver:  Solving for Uy, Initial residual = 0.00245113, Final residual = 8.72182e-06, No Iterations 30
DICPCG:  Solving for p, Initial residual = 0.00274306, Final residual = 0.000124102, No Iterations 105
time step continuity errors : sum local = 2.24098e-08, global = 6.32918e-20, cumulative = 7.12545e-19
DICPCG:  Solving for p, Initial residual = 0.00255904, Final residual = 8.13829e-07, No Iterations 155
time step continuity errors : sum local = 1.46646e-10, global = -2.43845e-20, cumulative = 6.8816e-19
ExecutionTime = 0.62 s  ClockTime = 1 s

Time = 0.0255

Courant Number mean: 0.100836 max: 0.483741
smoothSolver:  Solving for Ux, Initial residual = 0.00112574, Final residual = 9.01783e-06, No Iterations 26
smoothSolver:  Solving for Uy, Initial residual = 0.00237216, Final residual = 8.4558e-06, No Iterations 30
DICPCG:  Solving for p, Initial residual = 0.00222384, Final residual = 0.000109505, No Iterations 67
time step continuity errors : sum local = 2.36764e-08, global = 7.65096e-20, cumulative = 7.6467e-19
DICPCG:  Solving for p, Initial residual = 0.00206, Final residual = 9.05664e-07, No Iterations 152
time step continuity errors : sum local = 1.62843e-10, global = -4.87323e-20, cumulative = 7.15938e-19
ExecutionTime = 0.63 s  ClockTime = 1 s

Time = 0.026

Courant Number mean: 0.101181 max: 0.483798
smoothSolver:  Solving for Ux, Initial residual = 0.00108924, Final residual = 8.73189e-06, No Iterations 26
smoothSolver:  Solving for Uy, Initial residual = 0.002289, Final residual = 9.82804e-06, No Iterations 29
DICPCG:  Solving for p, Initial residual = 0.00249756, Final residual = 0.000114676, No Iterations 105
time step continuity errors : sum local = 2.07019e-08, global = -2.31849e-20, cumulative = 6.92753e-19
DICPCG:  Solving for p, Initial residual = 0.00233046, Final residual = 9.69316e-07, No Iterations 154
time step continuity errors : sum local = 1.74546e-10, global = -3.63111e-20, cumulative = 6.56442e-19
ExecutionTime = 0.64 s  ClockTime = 1 s

Time = 0.0265

Courant Number mean: 0.101514 max: 0.483853
smoothSolver:  Solving for Ux, Initial residual = 0.00105178, Final residual = 8.4254e-06, No Iterations 26
smoothSolver:  Solving for Uy, Initial residual = 0.00221776, Final residual = 9.53853e-06, No Iterations 29
DICPCG:  Solving for p, Initial residual = 0.00206912, Final residual = 8.53337e-05, No Iterations 104
time step continuity errors : sum local = 1.53133e-08, global = 3.19321e-20, cumulative = 6.88374e-19
DICPCG:  Solving for p, Initial residual = 0.00192699, Final residual = 9.98526e-07, No Iterations 140
time step continuity errors : sum local = 1.79814e-10, global = 1.20012e-20, cumulative = 7.00375e-19
ExecutionTime = 0.65 s  ClockTime = 1 s

Time = 0.027

Courant Number mean: 0.101836 max: 0.483906
smoothSolver:  Solving for Ux, Initial residual = 0.00101686, Final residual = 9.78376e-06, No Iterations 25
smoothSolver:  Solving for Uy, Initial residual = 0.00214475, Final residual = 9.23007e-06, No Iterations 29
DICPCG:  Solving for p, Initial residual = 0.00185063, Final residual = 9.07468e-05, No Iterations 62
time step continuity errors : sum local = 1.74285e-08, global = -4.18281e-20, cumulative = 6.58547e-19
DICPCG:  Solving for p, Initial residual = 0.00175477, Final residual = 9.10998e-07, No Iterations 140
time step continuity errors : sum local = 1.64602e-10, global = 1.01322e-20, cumulative = 6.68679e-19
ExecutionTime = 0.66 s  ClockTime = 1 s

Time = 0.0275

Courant Number mean: 0.102148 max: 0.483956
smoothSolver:  Solving for Ux, Initial residual = 0.0009823, Final residual = 9.45239e-06, No Iterations 25
smoothSolver:  Solving for Uy, Initial residual = 0.00207768, Final residual = 8.9436e-06, No Iterations 29
DICPCG:  Solving for p, Initial residual = 0.00201365, Final residual = 9.76454e-05, No Iterations 65
time step continuity errors : sum local = 2.11174e-08, global = 1.60915e-19, cumulative = 8.29594e-19
DICPCG:  Solving for p, Initial residual = 0.00187639, Final residual = 9.20853e-07, No Iterations 140
time step continuity errors : sum local = 1.66689e-10, global = 3.507e-20, cumulative = 8.64664e-19
ExecutionTime = 0.67 s  ClockTime = 1 s

Time = 0.028

Courant Number mean: 0.10245 max: 0.484005
smoothSolver:  Solving for Ux, Initial residual = 0.000952861, Final residual = 9.15953e-06, No Iterations 25
smoothSolver:  Solving for Uy, Initial residual = 0.0020076, Final residual = 8.66217e-06, No Iterations 29
DICPCG:  Solving for p, Initial residual = 0.00231509, Final residual = 0.000102737, No Iterations 105
time step continuity errors : sum local = 1.85203e-08, global = -2.42872e-20, cumulative = 8.40377e-19
DICPCG:  Solving for p, Initial residual = 0.00217396, Final residual = 9.68378e-07, No Iterations 153
time step continuity errors : sum local = 1.74667e-10, global = 4.32337e-20, cumulative = 8.8361e-19
ExecutionTime = 0.68 s  ClockTime = 1 s

Time = 0.0285

Courant Number mean: 0.102742 max: 0.484051
smoothSolver:  Solving for Ux, Initial residual = 0.000921683, Final residual = 8.86103e-06, No Iterations 25
smoothSolver:  Solving for Uy, Initial residual = 0.001946, Final residual = 8.39066e-06, No Iterations 29
DICPCG:  Solving for p, Initial residual = 0.00183407, Final residual = 8.64482e-05, No Iterations 62
time step continuity errors : sum local = 1.65432e-08, global = -5.49864e-20, cumulative = 8.28624e-19
DICPCG:  Solving for p, Initial residual = 0.00173382, Final residual = 9.89035e-07, No Iterations 97
time step continuity errors : sum local = 2.18573e-10, global = -9.5449e-20, cumulative = 7.33175e-19
ExecutionTime = 0.69 s  ClockTime = 1 s

Time = 0.029

Courant Number mean: 0.103026 max: 0.484096
smoothSolver:  Solving for Ux, Initial residual = 0.000890391, Final residual = 8.56096e-06, No Iterations 25
smoothSolver:  Solving for Uy, Initial residual = 0.0018865, Final residual = 9.80221e-06, No Iterations 28
DICPCG:  Solving for p, Initial residual = 0.00177332, Final residual = 8.54229e-05, No Iterations 62
time step continuity errors : sum local = 1.67651e-08, global = -4.00053e-20, cumulative = 6.9317e-19
DICPCG:  Solving for p, Initial residual = 0.00168346, Final residual = 8.6942e-07, No Iterations 132
time step continuity errors : sum local = 1.57676e-10, global = 4.50094e-20, cumulative = 7.38179e-19
ExecutionTime = 0.7 s  ClockTime = 1 s

Time = 0.0295

Courant Number mean: 0.103301 max: 0.484138
smoothSolver:  Solving for Ux, Initial residual = 0.000863121, Final residual = 9.96239e-06, No Iterations 24
smoothSolver:  Solving for Uy, Initial residual = 0.00182511, Final residual = 9.4957e-06, No Iterations 28
DICPCG:  Solving for p, Initial residual = 0.00180976, Final residual = 7.73005e-05, No Iterations 104
time step continuity errors : sum local = 1.39236e-08, global = 1.14116e-19, cumulative = 8.52295e-19
DICPCG:  Solving for p, Initial residual = 0.00170693, Final residual = 8.91429e-07, No Iterations 138
time step continuity errors : sum local = 1.60746e-10, global = 1.33773e-19, cumulative = 9.86068e-19
ExecutionTime = 0.71 s  ClockTime = 1 s

Time = 0.03

Courant Number mean: 0.103568 max: 0.484179
smoothSolver:  Solving for Ux, Initial residual = 0.000837075, Final residual = 9.65849e-06, No Iterations 24
smoothSolver:  Solving for Uy, Initial residual = 0.00176857, Final residual = 9.19971e-06, No Iterations 28
DICPCG:  Solving for p, Initial residual = 0.0016236, Final residual = 7.76411e-05, No Iterations 64
time step continuity errors : sum local = 1.58657e-08, global = 5.02495e-20, cumulative = 1.03632e-18
DICPCG:  Solving for p, Initial residual = 0.0015492, Final residual = 8.32298e-07, No Iterations 139
time step continuity errors : sum local = 1.49685e-10, global = 8.97215e-20, cumulative = 1.12604e-18
ExecutionTime = 0.72 s  ClockTime = 1 s

Time = 0.0305

Courant Number mean: 0.103826 max: 0.484219
smoothSolver:  Solving for Ux, Initial residual = 0.000810342, Final residual = 9.34886e-06, No Iterations 24
smoothSolver:  Solving for Uy, Initial residual = 0.00171417, Final residual = 8.91563e-06, No Iterations 28
DICPCG:  Solving for p, Initial residual = 0.00173772, Final residual = 8.5497e-05, No Iterations 96
time step continuity errors : sum local = 1.54583e-08, global = 7.7671e-20, cumulative = 1.20371e-18
DICPCG:  Solving for p, Initial residual = 0.0016519, Final residual = 9.00018e-07, No Iterations 142
time step continuity errors : sum local = 1.63483e-10, global = -4.46436e-20, cumulative = 1.15907e-18
ExecutionTime = 0.73 s  ClockTime = 1 s

Time = 0.031

Courant Number mean: 0.104077 max: 0.484256
smoothSolver:  Solving for Ux, Initial residual = 0.000785957, Final residual = 9.0581e-06, No Iterations 24
smoothSolver:  Solving for Uy, Initial residual = 0.0016603, Final residual = 8.64771e-06, No Iterations 28
DICPCG:  Solving for p, Initial residual = 0.0016024, Final residual = 6.44667e-05, No Iterations 104
time step continuity errors : sum local = 1.16248e-08, global = 7.74132e-20, cumulative = 1.23648e-18
DICPCG:  Solving for p, Initial residual = 0.00150701, Final residual = 9.0685e-07, No Iterations 137
time step continuity errors : sum local = 1.63599e-10, global = 1.33824e-20, cumulative = 1.24986e-18
ExecutionTime = 0.74 s  ClockTime = 1 s

Time = 0.0315

Courant Number mean: 0.104321 max: 0.484292
smoothSolver:  Solving for Ux, Initial residual = 0.000761815, Final residual = 8.77617e-06, No Iterations 24
smoothSolver:  Solving for Uy, Initial residual = 0.00161056, Final residual = 8.38974e-06, No Iterations 28
DICPCG:  Solving for p, Initial residual = 0.00143501, Final residual = 7.06475e-05, No Iterations 62
time step continuity errors : sum local = 1.45979e-08, global = 4.60609e-20, cumulative = 1.29592e-18
DICPCG:  Solving for p, Initial residual = 0.00136978, Final residual = 8.60123e-07, No Iterations 137
time step continuity errors : sum local = 1.54917e-10, global = -6.59811e-20, cumulative = 1.22994e-18
ExecutionTime = 0.75 s  ClockTime = 1 s

Time = 0.032

Courant Number mean: 0.104557 max: 0.484327
smoothSolver:  Solving for Ux, Initial residual = 0.00073803, Final residual = 8.50174e-06, No Iterations 24
smoothSolver:  Solving for Uy, Initial residual = 0.00156216, Final residual = 9.79767e-06, No Iterations 27
DICPCG:  Solving for p, Initial residual = 0.00160376, Final residual = 7.49036e-05, No Iterations 104
time step continuity errors : sum local = 1.35211e-08, global = 2.74654e-20, cumulative = 1.25741e-18
DICPCG:  Solving for p, Initial residual = 0.00151143, Final residual = 7.95346e-07, No Iterations 140
time step continuity errors : sum local = 1.43983e-10, global = 3.93536e-21, cumulative = 1.26134e-18
ExecutionTime = 0.76 s  ClockTime = 1 s

Time = 0.0325

Courant Number mean: 0.104786 max: 0.484361
smoothSolver:  Solving for Ux, Initial residual = 0.000716244, Final residual = 9.90377e-06, No Iterations 23
smoothSolver:  Solving for Uy, Initial residual = 0.00151492, Final residual = 9.51063e-06, No Iterations 27
DICPCG:  Solving for p, Initial residual = 0.00144992, Final residual = 6.79882e-05, No Iterations 103
time step continuity errors : sum local = 1.22535e-08, global = -1.43053e-20, cumulative = 1.24704e-18
DICPCG:  Solving for p, Initial residual = 0.00136852, Final residual = 9.90087e-07, No Iterations 136
time step continuity errors : sum local = 1.78337e-10, global = 2.80108e-20, cumulative = 1.27505e-18
ExecutionTime = 0.77 s  ClockTime = 1 s

Time = 0.033

Courant Number mean: 0.105008 max: 0.484393
smoothSolver:  Solving for Ux, Initial residual = 0.000694543, Final residual = 9.60085e-06, No Iterations 23
smoothSolver:  Solving for Uy, Initial residual = 0.00146929, Final residual = 9.22751e-06, No Iterations 27
DICPCG:  Solving for p, Initial residual = 0.00130333, Final residual = 6.41139e-05, No Iterations 62
time step continuity errors : sum local = 1.27513e-08, global = -1.14715e-20, cumulative = 1.26358e-18
DICPCG:  Solving for p, Initial residual = 0.00124882, Final residual = 9.47968e-07, No Iterations 136
time step continuity errors : sum local = 1.70646e-10, global = -5.4715e-20, cumulative = 1.20886e-18
ExecutionTime = 0.78 s  ClockTime = 1 s

Time = 0.0335

Courant Number mean: 0.105224 max: 0.484424
smoothSolver:  Solving for Ux, Initial residual = 0.000672858, Final residual = 9.29855e-06, No Iterations 23
smoothSolver:  Solving for Uy, Initial residual = 0.00142685, Final residual = 8.95854e-06, No Iterations 27
DICPCG:  Solving for p, Initial residual = 0.00145951, Final residual = 6.88915e-05, No Iterations 103
time step continuity errors : sum local = 1.24272e-08, global = -2.46986e-20, cumulative = 1.18416e-18
DICPCG:  Solving for p, Initial residual = 0.00137647, Final residual = 9.41473e-07, No Iterations 128
time step continuity errors : sum local = 1.70186e-10, global = -6.86896e-21, cumulative = 1.17729e-18
ExecutionTime = 0.79 s  ClockTime = 1 s

Time = 0.034

Courant Number mean: 0.105433 max: 0.484454
smoothSolver:  Solving for Ux, Initial residual = 0.000653864, Final residual = 9.02616e-06, No Iterations 23
smoothSolver:  Solving for Uy, Initial residual = 0.00138359, Final residual = 8.69511e-06, No Iterations 27
DICPCG:  Solving for p, Initial residual = 0.00130077, Final residual = 5.57397e-05, No Iterations 103
time step continuity errors : sum local = 1.00558e-08, global = 4.67153e-20, cumulative = 1.22401e-18
DICPCG:  Solving for p, Initial residual = 0.00123256, Final residual = 9.79813e-07, No Iterations 135
time step continuity errors : sum local = 1.76528e-10, global = -9.13099e-20, cumulative = 1.1327e-18
ExecutionTime = 0.8 s  ClockTime = 1 s

Time = 0.0345

Courant Number mean: 0.105636 max: 0.484482
smoothSolver:  Solving for Ux, Initial residual = 0.000634259, Final residual = 8.75155e-06, No Iterations 23
smoothSolver:  Solving for Uy, Initial residual = 0.00134281, Final residual = 8.44165e-06, No Iterations 27
DICPCG:  Solving for p, Initial residual = 0.0011719, Final residual = 5.83558e-05, No Iterations 62
time step continuity errors : sum local = 1.17623e-08, global = 2.51506e-20, cumulative = 1.15785e-18
DICPCG:  Solving for p, Initial residual = 0.00112591, Final residual = 9.79202e-07, No Iterations 135
time step continuity errors : sum local = 1.7635e-10, global = 5.07419e-20, cumulative = 1.20859e-18
ExecutionTime = 0.81 s  ClockTime = 1 s

Time = 0.035

Courant Number mean: 0.105833 max: 0.48451
smoothSolver:  Solving for Ux, Initial residual = 0.000614848, Final residual = 8.48155e-06, No Iterations 23
smoothSolver:  Solving for Uy, Initial residual = 0.00130458, Final residual = 9.87436e-06, No Iterations 26
DICPCG:  Solving for p, Initial residual = 0.00132981, Final residual = 5.68482e-05, No Iterations 104
time step continuity errors : sum local = 1.0266e-08, global = -7.48882e-20, cumulative = 1.1337e-18
DICPCG:  Solving for p, Initial residual = 0.00125577, Final residual = 9.59495e-07, No Iterations 127
time step continuity errors : sum local = 1.72982e-10, global = 7.44705e-20, cumulative = 1.20817e-18
ExecutionTime = 0.82 s  ClockTime = 1 s

Time = 0.0355

Courant Number mean: 0.106024 max: 0.484536
smoothSolver:  Solving for Ux, Initial residual = 0.000597653, Final residual = 9.90062e-06, No Iterations 22
smoothSolver:  Solving for Uy, Initial residual = 0.00126593, Final residual = 9.59032e-06, No Iterations 26
DICPCG:  Solving for p, Initial residual = 0.00122966, Final residual = 5.27582e-05, No Iterations 103
time step continuity errors : sum local = 9.51016e-09, global = -2.93462e-20, cumulative = 1.17883e-18
DICPCG:  Solving for p, Initial residual = 0.00116641, Final residual = 7.79726e-07, No Iterations 136
time step continuity errors : sum local = 1.40469e-10, global = 5.62212e-20, cumulative = 1.23505e-18
ExecutionTime = 0.83 s  ClockTime = 1 s

Time = 0.036

Courant Number mean: 0.10621 max: 0.484562
smoothSolver:  Solving for Ux, Initial residual = 0.00058009, Final residual = 9.60615e-06, No Iterations 22
smoothSolver:  Solving for Uy, Initial residual = 0.00122906, Final residual = 9.31338e-06, No Iterations 26
DICPCG:  Solving for p, Initial residual = 0.00111426, Final residual = 5.20487e-05, No Iterations 63
time step continuity errors : sum local = 1.06685e-08, global = -5.52408e-21, cumulative = 1.22953e-18
DICPCG:  Solving for p, Initial residual = 0.0010724, Final residual = 9.00601e-07, No Iterations 135
time step continuity errors : sum local = 1.62276e-10, global = -4.17997e-20, cumulative = 1.18773e-18
ExecutionTime = 0.84 s  ClockTime = 1 s

Time = 0.0365

Courant Number mean: 0.10639 max: 0.484586
smoothSolver:  Solving for Ux, Initial residual = 0.000562884, Final residual = 9.31856e-06, No Iterations 22
smoothSolver:  Solving for Uy, Initial residual = 0.00119411, Final residual = 9.04417e-06, No Iterations 26
DICPCG:  Solving for p, Initial residual = 0.00126139, Final residual = 6.00089e-05, No Iterations 103
time step continuity errors : sum local = 1.08439e-08, global = 1.35082e-20, cumulative = 1.20123e-18
DICPCG:  Solving for p, Initial residual = 0.00119601, Final residual = 9.33572e-07, No Iterations 128
time step continuity errors : sum local = 1.69402e-10, global = 3.46588e-20, cumulative = 1.23589e-18
ExecutionTime = 0.85 s  ClockTime = 1 s

Time = 0.037

Courant Number mean: 0.106565 max: 0.48461
smoothSolver:  Solving for Ux, Initial residual = 0.000547183, Final residual = 9.0475e-06, No Iterations 22
smoothSolver:  Solving for Uy, Initial residual = 0.00115947, Final residual = 8.79003e-06, No Iterations 26
DICPCG:  Solving for p, Initial residual = 0.00111829, Final residual = 4.8481e-05, No Iterations 103
time step continuity errors : sum local = 8.75767e-09, global = -3.16649e-20, cumulative = 1.20423e-18
DICPCG:  Solving for p, Initial residual = 0.00106218, Final residual = 8.23197e-07, No Iterations 135
time step continuity errors : sum local = 1.4839e-10, global = -9.09357e-20, cumulative = 1.11329e-18
ExecutionTime = 0.86 s  ClockTime = 1 s

Time = 0.0375

Courant Number mean: 0.106735 max: 0.484633
smoothSolver:  Solving for Ux, Initial residual = 0.00053127, Final residual = 8.7803e-06, No Iterations 22
smoothSolver:  Solving for Uy, Initial residual = 0.00112627, Final residual = 8.54037e-06, No Iterations 26
DICPCG:  Solving for p, Initial residual = 0.00102514, Final residual = 5.03966e-05, No Iterations 62
time step continuity errors : sum local = 1.01209e-08, global = 6.71006e-20, cumulative = 1.18039e-18
DICPCG:  Solving for p, Initial residual = 0.000986581, Final residual = 9.25485e-07, No Iterations 134
time step continuity errors : sum local = 1.66663e-10, global = -3.49232e-20, cumulative = 1.14547e-18
ExecutionTime = 0.87 s  ClockTime = 1 s

Time = 0.038

Courant Number mean: 0.1069 max: 0.484655
smoothSolver:  Solving for Ux, Initial residual = 0.000515421, Final residual = 8.51592e-06, No Iterations 22
smoothSolver:  Solving for Uy, Initial residual = 0.00109511, Final residual = 9.99791e-06, No Iterations 25
DICPCG:  Solving for p, Initial residual = 0.00114366, Final residual = 5.39391e-05, No Iterations 103
time step continuity errors : sum local = 9.74163e-09, global = 4.00256e-20, cumulative = 1.18549e-18
DICPCG:  Solving for p, Initial residual = 0.00108387, Final residual = 9.4914e-07, No Iterations 126
time step continuity errors : sum local = 1.70843e-10, global = 2.93531e-20, cumulative = 1.21485e-18
ExecutionTime = 0.88 s  ClockTime = 1 s

Time = 0.0385

Courant Number mean: 0.10706 max: 0.484676
smoothSolver:  Solving for Ux, Initial residual = 0.00050144, Final residual = 9.9535e-06, No Iterations 21
smoothSolver:  Solving for Uy, Initial residual = 0.00106342, Final residual = 9.71628e-06, No Iterations 25
DICPCG:  Solving for p, Initial residual = 0.00107571, Final residual = 4.44274e-05, No Iterations 103
time step continuity errors : sum local = 8.02256e-09, global = 3.41933e-20, cumulative = 1.24904e-18
DICPCG:  Solving for p, Initial residual = 0.00102564, Final residual = 9.47912e-07, No Iterations 134
time step continuity errors : sum local = 1.70716e-10, global = -4.55542e-20, cumulative = 1.20349e-18
ExecutionTime = 0.89 s  ClockTime = 1 s

Time = 0.039

Courant Number mean: 0.107215 max: 0.484697
smoothSolver:  Solving for Ux, Initial residual = 0.000487109, Final residual = 9.66603e-06, No Iterations 21
smoothSolver:  Solving for Uy, Initial residual = 0.00103338, Final residual = 9.44346e-06, No Iterations 25
DICPCG:  Solving for p, Initial residual = 0.000979197, Final residual = 4.88132e-05, No Iterations 62
time step continuity errors : sum local = 9.91669e-09, global = -6.64111e-20, cumulative = 1.13708e-18
DICPCG:  Solving for p, Initial residual = 0.000946714, Final residual = 9.33033e-07, No Iterations 131
time step continuity errors : sum local = 1.68407e-10, global = 4.18674e-20, cumulative = 1.17894e-18
ExecutionTime = 0.9 s  ClockTime = 1 s

Time = 0.0395

Courant Number mean: 0.107366 max: 0.484716
smoothSolver:  Solving for Ux, Initial residual = 0.000472969, Final residual = 9.38293e-06, No Iterations 21
smoothSolver:  Solving for Uy, Initial residual = 0.00100479, Final residual = 9.17688e-06, No Iterations 25
DICPCG:  Solving for p, Initial residual = 0.00110427, Final residual = 5.10993e-05, No Iterations 103
time step continuity errors : sum local = 9.2388e-09, global = 1.17801e-20, cumulative = 1.19072e-18
DICPCG:  Solving for p, Initial residual = 0.00104875, Final residual = 9.75e-07, No Iterations 127
time step continuity errors : sum local = 1.77407e-10, global = -5.40843e-20, cumulative = 1.13664e-18
ExecutionTime = 0.91 s  ClockTime = 1 s

Time = 0.04

Courant Number mean: 0.107513 max: 0.484736
smoothSolver:  Solving for Ux, Initial residual = 0.000460226, Final residual = 9.11891e-06, No Iterations 21
smoothSolver:  Solving for Uy, Initial residual = 0.000976266, Final residual = 8.92398e-06, No Iterations 25
DICPCG:  Solving for p, Initial residual = 0.00098116, Final residual = 4.30545e-05, No Iterations 103
time step continuity errors : sum local = 7.78005e-09, global = 2.61243e-20, cumulative = 1.16276e-18
DICPCG:  Solving for p, Initial residual = 0.00093643, Final residual = 8.75308e-07, No Iterations 134
time step continuity errors : sum local = 1.57636e-10, global = 4.95483e-20, cumulative = 1.21231e-18
ExecutionTime = 0.92 s  ClockTime = 1 s

Time = 0.0405

Courant Number mean: 0.107656 max: 0.484754
smoothSolver:  Solving for Ux, Initial residual = 0.000447153, Final residual = 8.85568e-06, No Iterations 21
smoothSolver:  Solving for Uy, Initial residual = 0.000949047, Final residual = 8.67692e-06, No Iterations 25
DICPCG:  Solving for p, Initial residual = 0.000903499, Final residual = 4.35051e-05, No Iterations 62
time step continuity errors : sum local = 8.76566e-09, global = 7.82289e-20, cumulative = 1.29054e-18
DICPCG:  Solving for p, Initial residual = 0.000872377, Final residual = 9.17928e-07, No Iterations 131
time step continuity errors : sum local = 1.65706e-10, global = 3.47342e-20, cumulative = 1.32527e-18
ExecutionTime = 0.93 s  ClockTime = 1 s

Time = 0.041

Courant Number mean: 0.107794 max: 0.484772
smoothSolver:  Solving for Ux, Initial residual = 0.00043416, Final residual = 8.59572e-06, No Iterations 21
smoothSolver:  Solving for Uy, Initial residual = 0.000923289, Final residual = 8.43509e-06, No Iterations 25
DICPCG:  Solving for p, Initial residual = 0.00099233, Final residual = 4.56409e-05, No Iterations 103
time step continuity errors : sum local = 8.24709e-09, global = 3.79488e-20, cumulative = 1.36322e-18
DICPCG:  Solving for p, Initial residual = 0.000943701, Final residual = 9.9235e-07, No Iterations 125
time step continuity errors : sum local = 1.78734e-10, global = -6.14379e-20, cumulative = 1.30179e-18
ExecutionTime = 0.94 s  ClockTime = 1 s

Time = 0.0415

Courant Number mean: 0.107929 max: 0.484789
smoothSolver:  Solving for Ux, Initial residual = 0.000422643, Final residual = 8.35801e-06, No Iterations 21
smoothSolver:  Solving for Uy, Initial residual = 0.000897172, Final residual = 9.88256e-06, No Iterations 24
DICPCG:  Solving for p, Initial residual = 0.000900012, Final residual = 4.40733e-05, No Iterations 102
time step continuity errors : sum local = 7.95171e-09, global = 4.21723e-20, cumulative = 1.34396e-18
DICPCG:  Solving for p, Initial residual = 0.000859002, Final residual = 9.13591e-07, No Iterations 133
time step continuity errors : sum local = 1.64937e-10, global = 3.0991e-20, cumulative = 1.37495e-18
ExecutionTime = 0.95 s  ClockTime = 1 s

Time = 0.042

Courant Number mean: 0.10806 max: 0.484805
smoothSolver:  Solving for Ux, Initial residual = 0.000410753, Final residual = 9.77078e-06, No Iterations 20
smoothSolver:  Solving for Uy, Initial residual = 0.000872472, Final residual = 9.61343e-06, No Iterations 24
DICPCG:  Solving for p, Initial residual = 0.00088981, Final residual = 4.36e-05, No Iterations 62
time step continuity errors : sum local = 8.81795e-09, global = 7.0554e-20, cumulative = 1.4455e-18
DICPCG:  Solving for p, Initial residual = 0.000859229, Final residual = 9.57589e-07, No Iterations 128
time step continuity errors : sum local = 1.72737e-10, global = -9.37739e-20, cumulative = 1.35173e-18
ExecutionTime = 0.96 s  ClockTime = 1 s

Time = 0.0425

Courant Number mean: 0.108188 max: 0.484821
smoothSolver:  Solving for Ux, Initial residual = 0.000399162, Final residual = 9.49419e-06, No Iterations 20
smoothSolver:  Solving for Uy, Initial residual = 0.000848714, Final residual = 9.34485e-06, No Iterations 24
DICPCG:  Solving for p, Initial residual = 0.00097327, Final residual = 4.25721e-05, No Iterations 103
time step continuity errors : sum local = 7.70046e-09, global = 9.3244e-20, cumulative = 1.44497e-18
DICPCG:  Solving for p, Initial residual = 0.000927845, Final residual = 8.87658e-07, No Iterations 127
time step continuity errors : sum local = 1.6156e-10, global = -1.47502e-19, cumulative = 1.29747e-18
ExecutionTime = 0.97 s  ClockTime = 1 s

Time = 0.043

Courant Number mean: 0.108312 max: 0.484837
smoothSolver:  Solving for Ux, Initial residual = 0.00038864, Final residual = 9.23331e-06, No Iterations 20
smoothSolver:  Solving for Uy, Initial residual = 0.000825202, Final residual = 9.09316e-06, No Iterations 24
DICPCG:  Solving for p, Initial residual = 0.000868176, Final residual = 3.73474e-05, No Iterations 103
time step continuity errors : sum local = 6.75147e-09, global = 6.26824e-20, cumulative = 1.36015e-18
DICPCG:  Solving for p, Initial residual = 0.000831852, Final residual = 9.01287e-07, No Iterations 133
time step continuity errors : sum local = 1.62652e-10, global = -4.53399e-20, cumulative = 1.31481e-18
ExecutionTime = 0.98 s  ClockTime = 1 s

Time = 0.0435

Courant Number mean: 0.108432 max: 0.484852
smoothSolver:  Solving for Ux, Initial residual = 0.000377846, Final residual = 8.97318e-06, No Iterations 20
smoothSolver:  Solving for Uy, Initial residual = 0.000802654, Final residual = 8.84616e-06, No Iterations 24
DICPCG:  Solving for p, Initial residual = 0.00080609, Final residual = 3.76356e-05, No Iterations 62
time step continuity errors : sum local = 7.60818e-09, global = 2.70583e-20, cumulative = 1.34187e-18
DICPCG:  Solving for p, Initial residual = 0.000780327, Final residual = 8.67206e-07, No Iterations 129
time step continuity errors : sum local = 1.56831e-10, global = 1.00552e-19, cumulative = 1.44242e-18
ExecutionTime = 0.99 s  ClockTime = 1 s

Time = 0.044

Courant Number mean: 0.10855 max: 0.484866
smoothSolver:  Solving for Ux, Initial residual = 0.000367121, Final residual = 8.71576e-06, No Iterations 20
smoothSolver:  Solving for Uy, Initial residual = 0.000781222, Final residual = 8.60316e-06, No Iterations 24
DICPCG:  Solving for p, Initial residual = 0.000876719, Final residual = 3.94554e-05, No Iterations 103
time step continuity errors : sum local = 7.1321e-09, global = 4.53974e-20, cumulative = 1.48782e-18
DICPCG:  Solving for p, Initial residual = 0.000836654, Final residual = 8.94714e-07, No Iterations 125
time step continuity errors : sum local = 1.61364e-10, global = -3.33966e-20, cumulative = 1.45442e-18
ExecutionTime = 1 s  ClockTime = 1 s

Time = 0.0445

Courant Number mean: 0.108664 max: 0.48488
smoothSolver:  Solving for Ux, Initial residual = 0.000357552, Final residual = 8.47923e-06, No Iterations 20
smoothSolver:  Solving for Uy, Initial residual = 0.0007596, Final residual = 8.37077e-06, No Iterations 24
DICPCG:  Solving for p, Initial residual = 0.00079922, Final residual = 3.97021e-05, No Iterations 102
time step continuity errors : sum local = 7.16389e-09, global = -3.27462e-20, cumulative = 1.42168e-18
DICPCG:  Solving for p, Initial residual = 0.000766666, Final residual = 8.93493e-07, No Iterations 132
time step continuity errors : sum local = 1.61307e-10, global = 2.60049e-20, cumulative = 1.44768e-18
ExecutionTime = 1.01 s  ClockTime = 1 s

Time = 0.045

Courant Number mean: 0.108775 max: 0.484893
smoothSolver:  Solving for Ux, Initial residual = 0.000347714, Final residual = 9.92338e-06, No Iterations 19
smoothSolver:  Solving for Uy, Initial residual = 0.000739011, Final residual = 9.81473e-06, No Iterations 23
DICPCG:  Solving for p, Initial residual = 0.00080817, Final residual = 3.88582e-05, No Iterations 62
time step continuity errors : sum local = 7.86604e-09, global = 7.19256e-20, cumulative = 1.51961e-18
DICPCG:  Solving for p, Initial residual = 0.000782132, Final residual = 8.97309e-07, No Iterations 125
time step continuity errors : sum local = 1.61684e-10, global = 4.60747e-20, cumulative = 1.56568e-18
ExecutionTime = 1.02 s  ClockTime = 1 s

Time = 0.0455

Courant Number mean: 0.108882 max: 0.484906
smoothSolver:  Solving for Ux, Initial residual = 0.000338123, Final residual = 9.64916e-06, No Iterations 19
smoothSolver:  Solving for Uy, Initial residual = 0.000719228, Final residual = 9.545e-06, No Iterations 23
DICPCG:  Solving for p, Initial residual = 0.000871227, Final residual = 3.68802e-05, No Iterations 103
time step continuity errors : sum local = 6.67534e-09, global = -4.46442e-20, cumulative = 1.52104e-18
DICPCG:  Solving for p, Initial residual = 0.000833719, Final residual = 9.2227e-07, No Iterations 126
time step continuity errors : sum local = 1.67746e-10, global = -5.04733e-20, cumulative = 1.47057e-18
ExecutionTime = 1.03 s  ClockTime = 1 s

Time = 0.046

Courant Number mean: 0.108987 max: 0.484919
smoothSolver:  Solving for Ux, Initial residual = 0.000329351, Final residual = 9.38869e-06, No Iterations 19
smoothSolver:  Solving for Uy, Initial residual = 0.000699695, Final residual = 9.29314e-06, No Iterations 23
DICPCG:  Solving for p, Initial residual = 0.000783182, Final residual = 3.32524e-05, No Iterations 103
time step continuity errors : sum local = 6.01165e-09, global = -1.49991e-20, cumulative = 1.45557e-18
DICPCG:  Solving for p, Initial residual = 0.000753592, Final residual = 9.13733e-07, No Iterations 132
time step continuity errors : sum local = 1.64862e-10, global = -9.55591e-21, cumulative = 1.44601e-18
ExecutionTime = 1.04 s  ClockTime = 1 s

Time = 0.0465

Courant Number mean: 0.109089 max: 0.484931
smoothSolver:  Solving for Ux, Initial residual = 0.000320385, Final residual = 9.12992e-06, No Iterations 19
smoothSolver:  Solving for Uy, Initial residual = 0.000680917, Final residual = 9.04503e-06, No Iterations 23
DICPCG:  Solving for p, Initial residual = 0.00073076, Final residual = 3.62694e-05, No Iterations 61
time step continuity errors : sum local = 7.25958e-09, global = 1.79794e-20, cumulative = 1.46399e-18
DICPCG:  Solving for p, Initial residual = 0.000707666, Final residual = 8.51352e-07, No Iterations 128
time step continuity errors : sum local = 1.53987e-10, global = -2.19426e-20, cumulative = 1.44205e-18
ExecutionTime = 1.05 s  ClockTime = 1 s

Time = 0.047

Courant Number mean: 0.109188 max: 0.484943
smoothSolver:  Solving for Ux, Initial residual = 0.000311391, Final residual = 8.87162e-06, No Iterations 19
smoothSolver:  Solving for Uy, Initial residual = 0.000663078, Final residual = 8.80071e-06, No Iterations 23
DICPCG:  Solving for p, Initial residual = 0.000794271, Final residual = 3.52726e-05, No Iterations 103
time step continuity errors : sum local = 6.37701e-09, global = 4.5199e-20, cumulative = 1.48725e-18
DICPCG:  Solving for p, Initial residual = 0.000760887, Final residual = 8.38526e-07, No Iterations 125
time step continuity errors : sum local = 1.51575e-10, global = -6.50049e-20, cumulative = 1.42224e-18
ExecutionTime = 1.05 s  ClockTime = 1 s

Time = 0.0475

Courant Number mean: 0.109285 max: 0.484954
smoothSolver:  Solving for Ux, Initial residual = 0.000303507, Final residual = 8.63801e-06, No Iterations 19
smoothSolver:  Solving for Uy, Initial residual = 0.000644984, Final residual = 8.56633e-06, No Iterations 23
DICPCG:  Solving for p, Initial residual = 0.000732297, Final residual = 3.07793e-05, No Iterations 103
time step continuity errors : sum local = 5.56041e-09, global = 1.12501e-19, cumulative = 1.53474e-18
DICPCG:  Solving for p, Initial residual = 0.000704454, Final residual = 9.73545e-07, No Iterations 130
time step continuity errors : sum local = 1.76055e-10, global = -6.46425e-20, cumulative = 1.4701e-18
ExecutionTime = 1.06 s  ClockTime = 1 s

Time = 0.048

Courant Number mean: 0.109379 max: 0.484965
smoothSolver:  Solving for Ux, Initial residual = 0.000295277, Final residual = 8.40061e-06, No Iterations 19
smoothSolver:  Solving for Uy, Initial residual = 0.000627865, Final residual = 8.34069e-06, No Iterations 23
DICPCG:  Solving for p, Initial residual = 0.000668144, Final residual = 3.26853e-05, No Iterations 62
time step continuity errors : sum local = 6.67734e-09, global = -5.17405e-20, cumulative = 1.41836e-18
DICPCG:  Solving for p, Initial residual = 0.000649758, Final residual = 9.29141e-07, No Iterations 119
time step continuity errors : sum local = 1.68243e-10, global = 5.4538e-21, cumulative = 1.42381e-18
ExecutionTime = 1.07 s  ClockTime = 1 s

Time = 0.0485

Courant Number mean: 0.10947 max: 0.484976
smoothSolver:  Solving for Ux, Initial residual = 0.00028725, Final residual = 9.84096e-06, No Iterations 18
smoothSolver:  Solving for Uy, Initial residual = 0.00061123, Final residual = 9.77727e-06, No Iterations 22
DICPCG:  Solving for p, Initial residual = 0.000796717, Final residual = 3.88297e-05, No Iterations 102
time step continuity errors : sum local = 7.03603e-09, global = 1.81197e-20, cumulative = 1.44193e-18
DICPCG:  Solving for p, Initial residual = 0.00076493, Final residual = 9.98378e-07, No Iterations 125
time step continuity errors : sum local = 1.80965e-10, global = -1.22918e-19, cumulative = 1.31901e-18
ExecutionTime = 1.08 s  ClockTime = 1 s

Time = 0.049

Courant Number mean: 0.109558 max: 0.484986
smoothSolver:  Solving for Ux, Initial residual = 0.00027993, Final residual = 9.58148e-06, No Iterations 18
smoothSolver:  Solving for Uy, Initial residual = 0.000594785, Final residual = 9.52121e-06, No Iterations 22
DICPCG:  Solving for p, Initial residual = 0.000717746, Final residual = 3.25407e-05, No Iterations 103
time step continuity errors : sum local = 5.8836e-09, global = 3.02428e-20, cumulative = 1.34926e-18
DICPCG:  Solving for p, Initial residual = 0.000690917, Final residual = 9.20689e-07, No Iterations 131
time step continuity errors : sum local = 1.66153e-10, global = 6.44005e-20, cumulative = 1.41366e-18
ExecutionTime = 1.09 s  ClockTime = 1 s

Time = 0.0495

Courant Number mean: 0.109645 max: 0.484996
smoothSolver:  Solving for Ux, Initial residual = 0.00027245, Final residual = 9.32256e-06, No Iterations 18
smoothSolver:  Solving for Uy, Initial residual = 0.000579127, Final residual = 9.27148e-06, No Iterations 22
DICPCG:  Solving for p, Initial residual = 0.000675923, Final residual = 3.13188e-05, No Iterations 61
time step continuity errors : sum local = 6.20998e-09, global = 1.55641e-19, cumulative = 1.5693e-18
DICPCG:  Solving for p, Initial residual = 0.000655467, Final residual = 9.24039e-07, No Iterations 127
time step continuity errors : sum local = 1.66555e-10, global = 6.66381e-21, cumulative = 1.57596e-18
ExecutionTime = 1.1 s  ClockTime = 1 s

Time = 0.05

Courant Number mean: 0.109729 max: 0.485006
smoothSolver:  Solving for Ux, Initial residual = 0.000264924, Final residual = 9.06321e-06, No Iterations 18
smoothSolver:  Solving for Uy, Initial residual = 0.000564163, Final residual = 9.0249e-06, No Iterations 22
DICPCG:  Solving for p, Initial residual = 0.0007121, Final residual = 3.33907e-05, No Iterations 102
time step continuity errors : sum local = 6.0366e-09, global = -6.83214e-20, cumulative = 1.50764e-18
DICPCG:  Solving for p, Initial residual = 0.000685405, Final residual = 9.00526e-07, No Iterations 123
time step continuity errors : sum local = 1.62218e-10, global = 1.87411e-20, cumulative = 1.52638e-18
ExecutionTime = 1.11 s  ClockTime = 1 s

Time = 0.0505

Courant Number mean: 0.10981 max: 0.485015
smoothSolver:  Solving for Ux, Initial residual = 0.000258308, Final residual = 8.8293e-06, No Iterations 18
smoothSolver:  Solving for Uy, Initial residual = 0.000548943, Final residual = 8.78678e-06, No Iterations 22
DICPCG:  Solving for p, Initial residual = 0.000667192, Final residual = 2.74819e-05, No Iterations 103
time step continuity errors : sum local = 4.96394e-09, global = 6.53514e-20, cumulative = 1.59173e-18
DICPCG:  Solving for p, Initial residual = 0.000643277, Final residual = 9.95635e-07, No Iterations 129
time step continuity errors : sum local = 1.79534e-10, global = -1.06972e-19, cumulative = 1.48476e-18
ExecutionTime = 1.12 s  ClockTime = 1 s

Time = 0.051

Courant Number mean: 0.10989 max: 0.485024
smoothSolver:  Solving for Ux, Initial residual = 0.000251442, Final residual = 8.59147e-06, No Iterations 18
smoothSolver:  Solving for Uy, Initial residual = 0.000534635, Final residual = 8.55922e-06, No Iterations 22
DICPCG:  Solving for p, Initial residual = 0.000613759, Final residual = 2.94222e-05, No Iterations 62
time step continuity errors : sum local = 5.98256e-09, global = -5.73135e-20, cumulative = 1.42745e-18
DICPCG:  Solving for p, Initial residual = 0.000598625, Final residual = 9.80687e-07, No Iterations 118
time step continuity errors : sum local = 1.77719e-10, global = -3.23323e-20, cumulative = 1.39512e-18
ExecutionTime = 1.13 s  ClockTime = 1 s

Time = 0.0515

Courant Number mean: 0.109967 max: 0.485033
smoothSolver:  Solving for Ux, Initial residual = 0.000244701, Final residual = 8.36092e-06, No Iterations 18
smoothSolver:  Solving for Uy, Initial residual = 0.000520657, Final residual = 8.32902e-06, No Iterations 22
DICPCG:  Solving for p, Initial residual = 0.000672191, Final residual = 2.97703e-05, No Iterations 103
time step continuity errors : sum local = 5.38818e-09, global = 1.92569e-20, cumulative = 1.41437e-18
DICPCG:  Solving for p, Initial residual = 0.000645947, Final residual = 9.17495e-07, No Iterations 125
time step continuity errors : sum local = 1.6624e-10, global = 4.86426e-20, cumulative = 1.46302e-18
ExecutionTime = 1.14 s  ClockTime = 1 s

Time = 0.052

Courant Number mean: 0.110042 max: 0.485041
smoothSolver:  Solving for Ux, Initial residual = 0.000238493, Final residual = 9.80817e-06, No Iterations 17
smoothSolver:  Solving for Uy, Initial residual = 0.0005069, Final residual = 9.78056e-06, No Iterations 21
DICPCG:  Solving for p, Initial residual = 0.000678065, Final residual = 2.93606e-05, No Iterations 103
time step continuity errors : sum local = 5.30721e-09, global = 9.08502e-20, cumulative = 1.55387e-18
DICPCG:  Solving for p, Initial residual = 0.000656121, Final residual = 9.87778e-07, No Iterations 130
time step continuity errors : sum local = 1.78512e-10, global = -1.97951e-20, cumulative = 1.53407e-18
ExecutionTime = 1.15 s  ClockTime = 1 s

Time = 0.0525

Courant Number mean: 0.110115 max: 0.48505
smoothSolver:  Solving for Ux, Initial residual = 0.00023228, Final residual = 9.55117e-06, No Iterations 17
smoothSolver:  Solving for Uy, Initial residual = 0.000493635, Final residual = 9.52445e-06, No Iterations 21
DICPCG:  Solving for p, Initial residual = 0.000615044, Final residual = 2.93527e-05, No Iterations 47
time step continuity errors : sum local = 5.86129e-09, global = 1.31911e-20, cumulative = 1.54726e-18
DICPCG:  Solving for p, Initial residual = 0.000603388, Final residual = 8.82774e-07, No Iterations 126
time step continuity errors : sum local = 1.59332e-10, global = -8.53009e-20, cumulative = 1.46196e-18
ExecutionTime = 1.16 s  ClockTime = 1 s

Time = 0.053

Courant Number mean: 0.110186 max: 0.485058
smoothSolver:  Solving for Ux, Initial residual = 0.000225664, Final residual = 9.27309e-06, No Iterations 17
smoothSolver:  Solving for Uy, Initial residual = 0.000482054, Final residual = 9.29216e-06, No Iterations 21
DICPCG:  Solving for p, Initial residual = 0.000683805, Final residual = 3.17255e-05, No Iterations 100
time step continuity errors : sum local = 5.71492e-09, global = 7.16229e-20, cumulative = 1.53358e-18
DICPCG:  Solving for p, Initial residual = 0.000661102, Final residual = 9.83739e-07, No Iterations 122
time step continuity errors : sum local = 1.78588e-10, global = 1.04772e-19, cumulative = 1.63836e-18
ExecutionTime = 1.16 s  ClockTime = 1 s

Time = 0.0535

Courant Number mean: 0.110256 max: 0.485065
smoothSolver:  Solving for Ux, Initial residual = 0.000220496, Final residual = 9.05658e-06, No Iterations 17
smoothSolver:  Solving for Uy, Initial residual = 0.000468135, Final residual = 9.03228e-06, No Iterations 21
DICPCG:  Solving for p, Initial residual = 0.000605282, Final residual = 2.55028e-05, No Iterations 103
time step continuity errors : sum local = 4.60648e-09, global = -1.2389e-19, cumulative = 1.51447e-18
DICPCG:  Solving for p, Initial residual = 0.000583342, Final residual = 9.76064e-07, No Iterations 126
time step continuity errors : sum local = 1.76081e-10, global = -1.62693e-19, cumulative = 1.35177e-18
ExecutionTime = 1.17 s  ClockTime = 1 s

Time = 0.054

Courant Number mean: 0.110323 max: 0.485073
smoothSolver:  Solving for Ux, Initial residual = 0.000214634, Final residual = 8.81446e-06, No Iterations 17
smoothSolver:  Solving for Uy, Initial residual = 0.000456115, Final residual = 8.80153e-06, No Iterations 21
DICPCG:  Solving for p, Initial residual = 0.000578003, Final residual = 2.69399e-05, No Iterations 47
time step continuity errors : sum local = 5.44806e-09, global = -6.69557e-20, cumulative = 1.28482e-18
DICPCG:  Solving for p, Initial residual = 0.000565749, Final residual = 9.78284e-07, No Iterations 125
[...]
DICPCG:  Solving for p, Initial residual = 9.05662e-06, Final residual = 9.59419e-07, No Iterations 100
time step continuity errors : sum local = 1.73175e-10, global = 3.51367e-20, cumulative = 2.41946e-17
ExecutionTime = 6.32 s  ClockTime = 6 s

Time = 0.487

Courant Number mean: 0.112887 max: 0.485328
smoothSolver:  Solving for Ux, Initial residual = 6.49912e-08, Final residual = 7.72305e-09, No Iterations 10
smoothSolver:  Solving for Uy, Initial residual = 1.12153e-07, Final residual = 1.18308e-08, No Iterations 10
DICPCG:  Solving for p, Initial residual = 1.18647e-05, Final residual = 8.64551e-07, No Iterations 48
time step continuity errors : sum local = 1.70302e-10, global = -4.89523e-22, cumulative = 2.41941e-17
DICPCG:  Solving for p, Initial residual = 1.06372e-05, Final residual = 9.45248e-07, No Iterations 44
time step continuity errors : sum local = 1.75086e-10, global = -5.31262e-20, cumulative = 2.4141e-17
ExecutionTime = 6.33 s  ClockTime = 6 s

Time = 0.4875

Courant Number mean: 0.112887 max: 0.485328
smoothSolver:  Solving for Ux, Initial residual = 1.00222e-07, Final residual = 1.43054e-08, No Iterations 10
smoothSolver:  Solving for Uy, Initial residual = 1.41035e-07, Final residual = 1.81551e-08, No Iterations 10
DICPCG:  Solving for p, Initial residual = 8.86475e-06, Final residual = 9.25167e-07, No Iterations 59
time step continuity errors : sum local = 1.97805e-10, global = -9.71243e-21, cumulative = 2.41312e-17
DICPCG:  Solving for p, Initial residual = 7.97764e-06, Final residual = 9.98789e-07, No Iterations 56
time step continuity errors : sum local = 1.87489e-10, global = 3.82961e-20, cumulative = 2.41695e-17
ExecutionTime = 6.33 s  ClockTime = 6 s

Time = 0.488

Courant Number mean: 0.112887 max: 0.485328
smoothSolver:  Solving for Ux, Initial residual = 8.51488e-08, Final residual = 1.10772e-08, No Iterations 10
smoothSolver:  Solving for Uy, Initial residual = 2.13157e-07, Final residual = 2.85695e-08, No Iterations 10
DICPCG:  Solving for p, Initial residual = 1.08722e-05, Final residual = 9.40484e-07, No Iterations 85
time step continuity errors : sum local = 1.69807e-10, global = -1.01843e-19, cumulative = 2.40677e-17
DICPCG:  Solving for p, Initial residual = 1.00225e-05, Final residual = 9.60483e-07, No Iterations 79
time step continuity errors : sum local = 1.73949e-10, global = -5.07967e-20, cumulative = 2.40169e-17
ExecutionTime = 6.34 s  ClockTime = 6 s

Time = 0.4885

Courant Number mean: 0.112887 max: 0.485328
smoothSolver:  Solving for Ux, Initial residual = 7.0111e-08, Final residual = 9.29901e-09, No Iterations 10
smoothSolver:  Solving for Uy, Initial residual = 1.44318e-07, Final residual = 1.91645e-08, No Iterations 10
DICPCG:  Solving for p, Initial residual = 8.6307e-06, Final residual = 9.79926e-07, No Iterations 46
time step continuity errors : sum local = 1.89574e-10, global = -4.64498e-20, cumulative = 2.39705e-17
DICPCG:  Solving for p, Initial residual = 7.78776e-06, Final residual = 8.43992e-07, No Iterations 38
time step continuity errors : sum local = 1.56905e-10, global = 4.18538e-20, cumulative = 2.40123e-17
ExecutionTime = 6.34 s  ClockTime = 6 s

Time = 0.489

Courant Number mean: 0.112887 max: 0.485328
smoothSolver:  Solving for Ux, Initial residual = 1.37646e-07, Final residual = 1.94505e-08, No Iterations 10
smoothSolver:  Solving for Uy, Initial residual = 1.4819e-07, Final residual = 1.8949e-08, No Iterations 10
DICPCG:  Solving for p, Initial residual = 9.19728e-06, Final residual = 9.94793e-07, No Iterations 56
time step continuity errors : sum local = 2.06757e-10, global = 4.53901e-20, cumulative = 2.40577e-17
DICPCG:  Solving for p, Initial residual = 8.25466e-06, Final residual = 8.81879e-07, No Iterations 55
time step continuity errors : sum local = 1.62888e-10, global = -4.46402e-20, cumulative = 2.40131e-17
ExecutionTime = 6.35 s  ClockTime = 6 s

Time = 0.4895

Courant Number mean: 0.112887 max: 0.485328
smoothSolver:  Solving for Ux, Initial residual = 6.42529e-08, Final residual = 6.59551e-09, No Iterations 10
smoothSolver:  Solving for Uy, Initial residual = 1.81628e-07, Final residual = 2.22125e-08, No Iterations 10
DICPCG:  Solving for p, Initial residual = 1.20545e-05, Final residual = 9.97642e-07, No Iterations 87
time step continuity errors : sum local = 1.81275e-10, global = 3.8395e-20, cumulative = 2.40515e-17
DICPCG:  Solving for p, Initial residual = 1.09512e-05, Final residual = 9.14107e-07, No Iterations 92
time step continuity errors : sum local = 1.65635e-10, global = 1.946e-19, cumulative = 2.42461e-17
ExecutionTime = 6.36 s  ClockTime = 6 s

Time = 0.49

Courant Number mean: 0.112887 max: 0.485328
smoothSolver:  Solving for Ux, Initial residual = 4.20643e-08, Final residual = 5.14299e-09, No Iterations 10
smoothSolver:  Solving for Uy, Initial residual = 9.74336e-08, Final residual = 1.06368e-08, No Iterations 10
DICPCG:  Solving for p, Initial residual = 7.2217e-06, Final residual = 8.09424e-07, No Iterations 42
time step continuity errors : sum local = 1.57047e-10, global = -3.81361e-20, cumulative = 2.42079e-17
DICPCG:  Solving for p, Initial residual = 6.45848e-06, Final residual = 9.42118e-07, No Iterations 41
time step continuity errors : sum local = 1.77122e-10, global = -2.6462e-20, cumulative = 2.41815e-17
ExecutionTime = 6.36 s  ClockTime = 6 s

Time = 0.4905

Courant Number mean: 0.112887 max: 0.485328
smoothSolver:  Solving for Ux, Initial residual = 8.7945e-08, Final residual = 1.22176e-08, No Iterations 10
smoothSolver:  Solving for Uy, Initial residual = 1.69466e-07, Final residual = 2.11005e-08, No Iterations 10
DICPCG:  Solving for p, Initial residual = 1.13885e-05, Final residual = 8.69358e-07, No Iterations 101
time step continuity errors : sum local = 1.56853e-10, global = -3.99183e-20, cumulative = 2.41415e-17
DICPCG:  Solving for p, Initial residual = 1.04117e-05, Final residual = 9.38905e-07, No Iterations 100
time step continuity errors : sum local = 1.69293e-10, global = -1.87202e-19, cumulative = 2.39543e-17
ExecutionTime = 6.37 s  ClockTime = 6 s

Time = 0.491

Courant Number mean: 0.112887 max: 0.485328
smoothSolver:  Solving for Ux, Initial residual = 4.50529e-08, Final residual = 4.97626e-09, No Iterations 10
smoothSolver:  Solving for Uy, Initial residual = 1.04698e-07, Final residual = 1.12628e-08, No Iterations 10
DICPCG:  Solving for p, Initial residual = 9.66556e-06, Final residual = 8.81007e-07, No Iterations 28
time step continuity errors : sum local = 1.7567e-10, global = 2.17165e-20, cumulative = 2.39761e-17
DICPCG:  Solving for p, Initial residual = 8.76742e-06, Final residual = 9.42854e-07, No Iterations 26
time step continuity errors : sum local = 1.76151e-10, global = 1.057e-19, cumulative = 2.40818e-17
ExecutionTime = 6.38 s  ClockTime = 6 s

Time = 0.4915

Courant Number mean: 0.112887 max: 0.485328
smoothSolver:  Solving for Ux, Initial residual = 6.17896e-08, Final residual = 7.93804e-09, No Iterations 10
smoothSolver:  Solving for Uy, Initial residual = 1.54514e-07, Final residual = 1.97545e-08, No Iterations 10
DICPCG:  Solving for p, Initial residual = 9.82512e-06, Final residual = 9.72078e-07, No Iterations 35
time step continuity errors : sum local = 2.15546e-10, global = 1.07276e-19, cumulative = 2.4189e-17
DICPCG:  Solving for p, Initial residual = 8.80857e-06, Final residual = 9.51491e-07, No Iterations 33
time step continuity errors : sum local = 1.81868e-10, global = -1.4448e-19, cumulative = 2.40445e-17
ExecutionTime = 6.38 s  ClockTime = 6 s

Time = 0.492

Courant Number mean: 0.112887 max: 0.485328
smoothSolver:  Solving for Ux, Initial residual = 7.87889e-08, Final residual = 9.99861e-09, No Iterations 10
smoothSolver:  Solving for Uy, Initial residual = 2.05466e-07, Final residual = 2.6264e-08, No Iterations 10
DICPCG:  Solving for p, Initial residual = 1.25234e-05, Final residual = 8.84379e-07, No Iterations 104
time step continuity errors : sum local = 1.59646e-10, global = -1.80759e-20, cumulative = 2.40265e-17
DICPCG:  Solving for p, Initial residual = 1.14877e-05, Final residual = 9.71124e-07, No Iterations 103
time step continuity errors : sum local = 1.75264e-10, global = -6.99947e-20, cumulative = 2.39565e-17
ExecutionTime = 6.39 s  ClockTime = 6 s

Time = 0.4925

Courant Number mean: 0.112887 max: 0.485328
smoothSolver:  Solving for Ux, Initial residual = 4.54e-08, Final residual = 4.70007e-09, No Iterations 10
smoothSolver:  Solving for Uy, Initial residual = 8.92411e-08, Final residual = 8.74481e-09, No Iterations 10
DICPCG:  Solving for p, Initial residual = 1.02622e-05, Final residual = 9.4756e-07, No Iterations 27
time step continuity errors : sum local = 1.79024e-10, global = -5.98258e-21, cumulative = 2.39505e-17
DICPCG:  Solving for p, Initial residual = 9.23776e-06, Final residual = 9.52861e-07, No Iterations 24
time step continuity errors : sum local = 1.75662e-10, global = 6.00606e-20, cumulative = 2.40106e-17
ExecutionTime = 6.39 s  ClockTime = 6 s

Time = 0.493

Courant Number mean: 0.112887 max: 0.485328
smoothSolver:  Solving for Ux, Initial residual = 7.71436e-08, Final residual = 1.00406e-08, No Iterations 10
smoothSolver:  Solving for Uy, Initial residual = 1.50344e-07, Final residual = 1.97668e-08, No Iterations 10
DICPCG:  Solving for p, Initial residual = 9.75676e-06, Final residual = 9.70947e-07, No Iterations 43
time step continuity errors : sum local = 1.84359e-10, global = -1.79576e-21, cumulative = 2.40088e-17
DICPCG:  Solving for p, Initial residual = 8.92723e-06, Final residual = 9.74541e-07, No Iterations 34
time step continuity errors : sum local = 1.78861e-10, global = 1.04147e-19, cumulative = 2.41129e-17
ExecutionTime = 6.39 s  ClockTime = 6 s

Time = 0.4935

Courant Number mean: 0.112887 max: 0.485328
smoothSolver:  Solving for Ux, Initial residual = 1.02266e-07, Final residual = 1.42123e-08, No Iterations 10
smoothSolver:  Solving for Uy, Initial residual = 2.11949e-07, Final residual = 2.99173e-08, No Iterations 10
DICPCG:  Solving for p, Initial residual = 8.59953e-06, Final residual = 9.27133e-07, No Iterations 46
time step continuity errors : sum local = 2.12499e-10, global = 1.65403e-20, cumulative = 2.41294e-17
DICPCG:  Solving for p, Initial residual = 7.6645e-06, Final residual = 8.79195e-07, No Iterations 43
time step continuity errors : sum local = 1.70518e-10, global = 1.21104e-19, cumulative = 2.42506e-17
ExecutionTime = 6.4 s  ClockTime = 6 s

Time = 0.494

Courant Number mean: 0.112887 max: 0.485328
smoothSolver:  Solving for Ux, Initial residual = 8.92951e-08, Final residual = 1.17993e-08, No Iterations 10
smoothSolver:  Solving for Uy, Initial residual = 2.22628e-07, Final residual = 2.94659e-08, No Iterations 10
DICPCG:  Solving for p, Initial residual = 1.01164e-05, Final residual = 9.5976e-07, No Iterations 91
time step continuity errors : sum local = 1.73884e-10, global = 4.91051e-20, cumulative = 2.42997e-17
DICPCG:  Solving for p, Initial residual = 9.28191e-06, Final residual = 9.95616e-07, No Iterations 89
time step continuity errors : sum local = 1.79992e-10, global = 4.40449e-20, cumulative = 2.43437e-17
ExecutionTime = 6.41 s  ClockTime = 6 s

Time = 0.4945

Courant Number mean: 0.112887 max: 0.485328
smoothSolver:  Solving for Ux, Initial residual = 6.79966e-08, Final residual = 8.77042e-09, No Iterations 10
smoothSolver:  Solving for Uy, Initial residual = 9.31859e-08, Final residual = 1.03735e-08, No Iterations 10
DICPCG:  Solving for p, Initial residual = 9.90036e-06, Final residual = 9.58457e-07, No Iterations 43
time step continuity errors : sum local = 1.80959e-10, global = 7.9874e-21, cumulative = 2.43517e-17
DICPCG:  Solving for p, Initial residual = 9.00551e-06, Final residual = 8.95842e-07, No Iterations 43
time step continuity errors : sum local = 1.6609e-10, global = 1.00085e-19, cumulative = 2.44518e-17
ExecutionTime = 6.41 s  ClockTime = 6 s

Time = 0.495

Courant Number mean: 0.112887 max: 0.485328
smoothSolver:  Solving for Ux, Initial residual = 8.98856e-08, Final residual = 1.18891e-08, No Iterations 10
smoothSolver:  Solving for Uy, Initial residual = 1.39719e-07, Final residual = 1.70837e-08, No Iterations 10
DICPCG:  Solving for p, Initial residual = 1.23986e-05, Final residual = 8.80188e-07, No Iterations 61
time step continuity errors : sum local = 1.85899e-10, global = -5.10905e-20, cumulative = 2.44007e-17
DICPCG:  Solving for p, Initial residual = 1.11626e-05, Final residual = 8.30192e-07, No Iterations 47
time step continuity errors : sum local = 1.54337e-10, global = 4.10674e-20, cumulative = 2.44418e-17
ExecutionTime = 6.42 s  ClockTime = 6 s

Time = 0.4955

Courant Number mean: 0.112887 max: 0.485328
smoothSolver:  Solving for Ux, Initial residual = 7.99814e-08, Final residual = 1.05261e-08, No Iterations 10
smoothSolver:  Solving for Uy, Initial residual = 1.51411e-07, Final residual = 1.93903e-08, No Iterations 10
DICPCG:  Solving for p, Initial residual = 9.40757e-06, Final residual = 9.59089e-07, No Iterations 97
time step continuity errors : sum local = 1.73377e-10, global = 1.2169e-19, cumulative = 2.45634e-17
DICPCG:  Solving for p, Initial residual = 8.55649e-06, Final residual = 7.80796e-07, No Iterations 97
time step continuity errors : sum local = 1.4092e-10, global = 1.30453e-20, cumulative = 2.45765e-17
ExecutionTime = 6.42 s  ClockTime = 6 s

Time = 0.496

Courant Number mean: 0.112887 max: 0.485328
smoothSolver:  Solving for Ux, Initial residual = 4.76359e-08, Final residual = 4.9649e-09, No Iterations 10
smoothSolver:  Solving for Uy, Initial residual = 1.00822e-07, Final residual = 1.115e-08, No Iterations 10
DICPCG:  Solving for p, Initial residual = 1.00258e-05, Final residual = 9.84792e-07, No Iterations 27
time step continuity errors : sum local = 1.8687e-10, global = 3.49296e-20, cumulative = 2.46114e-17
DICPCG:  Solving for p, Initial residual = 8.98656e-06, Final residual = 8.9629e-07, No Iterations 25
time step continuity errors : sum local = 1.66536e-10, global = 1.83194e-20, cumulative = 2.46297e-17
ExecutionTime = 6.43 s  ClockTime = 6 s

Time = 0.4965

Courant Number mean: 0.112887 max: 0.485328
smoothSolver:  Solving for Ux, Initial residual = 7.71432e-08, Final residual = 1.00643e-08, No Iterations 10
smoothSolver:  Solving for Uy, Initial residual = 1.56888e-07, Final residual = 2.04e-08, No Iterations 10
DICPCG:  Solving for p, Initial residual = 1.0332e-05, Final residual = 9.84765e-07, No Iterations 59
time step continuity errors : sum local = 2.00129e-10, global = 1.01436e-19, cumulative = 2.47312e-17
DICPCG:  Solving for p, Initial residual = 9.42532e-06, Final residual = 8.18615e-07, No Iterations 58
time step continuity errors : sum local = 1.49708e-10, global = 1.33743e-19, cumulative = 2.48649e-17
ExecutionTime = 6.43 s  ClockTime = 6 s

Time = 0.497

Courant Number mean: 0.112887 max: 0.485328
smoothSolver:  Solving for Ux, Initial residual = 4.84417e-08, Final residual = 4.72258e-09, No Iterations 10
smoothSolver:  Solving for Uy, Initial residual = 1.72597e-07, Final residual = 2.18517e-08, No Iterations 10
DICPCG:  Solving for p, Initial residual = 1.06529e-05, Final residual = 9.97648e-07, No Iterations 88
time step continuity errors : sum local = 1.80507e-10, global = -1.14664e-20, cumulative = 2.48534e-17
DICPCG:  Solving for p, Initial residual = 9.74341e-06, Final residual = 9.93041e-07, No Iterations 87
time step continuity errors : sum local = 1.79476e-10, global = 1.54651e-19, cumulative = 2.50081e-17
ExecutionTime = 6.44 s  ClockTime = 6 s

Time = 0.4975

Courant Number mean: 0.112887 max: 0.485328
smoothSolver:  Solving for Ux, Initial residual = 6.55469e-08, Final residual = 8.50622e-09, No Iterations 10
smoothSolver:  Solving for Uy, Initial residual = 8.76125e-08, Final residual = 8.84267e-09, No Iterations 10
DICPCG:  Solving for p, Initial residual = 9.74154e-06, Final residual = 9.99682e-07, No Iterations 43
time step continuity errors : sum local = 2.11114e-10, global = 1.41541e-19, cumulative = 2.51496e-17
DICPCG:  Solving for p, Initial residual = 8.67321e-06, Final residual = 8.34926e-07, No Iterations 41
time step continuity errors : sum local = 1.61867e-10, global = 1.28076e-20, cumulative = 2.51624e-17
ExecutionTime = 6.44 s  ClockTime = 6 s

Time = 0.498

Courant Number mean: 0.112887 max: 0.485328
smoothSolver:  Solving for Ux, Initial residual = 9.26484e-08, Final residual = 1.20146e-08, No Iterations 10
smoothSolver:  Solving for Uy, Initial residual = 2.10559e-07, Final residual = 2.87958e-08, No Iterations 10
DICPCG:  Solving for p, Initial residual = 1.23157e-05, Final residual = 9.75295e-07, No Iterations 102
time step continuity errors : sum local = 1.75946e-10, global = 3.20518e-20, cumulative = 2.51945e-17
DICPCG:  Solving for p, Initial residual = 1.1411e-05, Final residual = 9.40578e-07, No Iterations 102
time step continuity errors : sum local = 1.69532e-10, global = 5.81408e-20, cumulative = 2.52526e-17
ExecutionTime = 6.45 s  ClockTime = 6 s

Time = 0.4985

Courant Number mean: 0.112887 max: 0.485328
smoothSolver:  Solving for Ux, Initial residual = 5.62083e-08, Final residual = 6.16446e-09, No Iterations 10
smoothSolver:  Solving for Uy, Initial residual = 8.46916e-08, Final residual = 7.9435e-09, No Iterations 10
DICPCG:  Solving for p, Initial residual = 1.04944e-05, Final residual = 9.63259e-07, No Iterations 44
time step continuity errors : sum local = 1.89736e-10, global = 5.55999e-20, cumulative = 2.53082e-17
DICPCG:  Solving for p, Initial residual = 9.392e-06, Final residual = 9.44213e-07, No Iterations 43
time step continuity errors : sum local = 1.75083e-10, global = 1.91467e-19, cumulative = 2.54997e-17
ExecutionTime = 6.46 s  ClockTime = 6 s

Time = 0.499

Courant Number mean: 0.112887 max: 0.485328
smoothSolver:  Solving for Ux, Initial residual = 8.04943e-08, Final residual = 1.06102e-08, No Iterations 10
smoothSolver:  Solving for Uy, Initial residual = 1.56296e-07, Final residual = 1.9458e-08, No Iterations 10
DICPCG:  Solving for p, Initial residual = 1.14738e-05, Final residual = 9.85754e-07, No Iterations 62
time step continuity errors : sum local = 2.17289e-10, global = -4.82862e-20, cumulative = 2.54514e-17
DICPCG:  Solving for p, Initial residual = 1.01855e-05, Final residual = 9.40353e-07, No Iterations 57
time step continuity errors : sum local = 1.76823e-10, global = -7.86312e-20, cumulative = 2.53728e-17
ExecutionTime = 6.46 s  ClockTime = 6 s

Time = 0.4995

Courant Number mean: 0.112887 max: 0.485328
smoothSolver:  Solving for Ux, Initial residual = 8.66916e-08, Final residual = 1.13833e-08, No Iterations 10
smoothSolver:  Solving for Uy, Initial residual = 2.21684e-07, Final residual = 2.96928e-08, No Iterations 10
DICPCG:  Solving for p, Initial residual = 1.01248e-05, Final residual = 8.91443e-07, No Iterations 103
time step continuity errors : sum local = 1.6083e-10, global = 4.1012e-20, cumulative = 2.54138e-17
DICPCG:  Solving for p, Initial residual = 9.19094e-06, Final residual = 9.71652e-07, No Iterations 100
time step continuity errors : sum local = 1.75494e-10, global = 5.34466e-20, cumulative = 2.54672e-17
ExecutionTime = 6.47 s  ClockTime = 6 s

Time = 0.5

Courant Number mean: 0.112887 max: 0.485328
smoothSolver:  Solving for Ux, Initial residual = 6.3959e-08, Final residual = 8.10786e-09, No Iterations 10
smoothSolver:  Solving for Uy, Initial residual = 1.0141e-07, Final residual = 1.15219e-08, No Iterations 10
DICPCG:  Solving for p, Initial residual = 1.00975e-05, Final residual = 9.58809e-07, No Iterations 32
time step continuity errors : sum local = 1.8771e-10, global = 1.13464e-20, cumulative = 2.54786e-17
DICPCG:  Solving for p, Initial residual = 9.22618e-06, Final residual = 9.90844e-07, No Iterations 27
time step continuity errors : sum local = 1.8595e-10, global = 1.04587e-20, cumulative = 2.54891e-17
ExecutionTime = 6.48 s  ClockTime = 6 s

End

Finalising parallel run
